<?xml version="1.0" encoding="UTF-8"?>

<!-- generated on 04/03/19 11:14:16 by Eclipse SUMO netgenerate Version 1.1.0
<configuration xmlns:xsi="http://www.w3.org/2001/XMLSchema-instance" xsi:noNamespaceSchemaLocation="http://sumo.dlr.de/xsd/netgenerateConfiguration.xsd">

    <spider_network>
        <spider value="true"/>
        <spider.arm-number value="10"/>
        <spider.circle-number value="10"/>
        <spider.space-radius value="25"/>
        <spider.omit-center value="true"/>
    </spider_network>

    <processing>
        <lefthand value="true"/>
    </processing>

</configuration>
-->

<net version="1.1" junctionCornerDetail="5" lefthand="true" limitTurnSpeed="5.50" xmlns:xsi="http://www.w3.org/2001/XMLSchema-instance" xsi:noNamespaceSchemaLocation="http://sumo.dlr.de/xsd/net_file.xsd">

    <location netOffset="250.00,237.76" convBoundary="0.00,-0.00,500.00,475.53" origBoundary="-250.00,-237.76,250.00,237.76" projParameter="!"/>

    <edge id=":B1_0" function="internal">
        <lane id=":B1_0_0" index="0" speed="6.60" length="7.09" shape="280.23,236.16 278.37,235.92 276.87,235.20 275.71,233.99 274.91,232.29"/>
    </edge>
    <edge id=":B1_1" function="internal">
        <lane id=":B1_1_0" index="0" speed="8.13" length="11.15" shape="280.23,236.16 277.31,236.54 274.94,237.68 273.13,239.58 271.86,242.24"/>
    </edge>
    <edge id=":B1_2" function="internal">
        <lane id=":B1_2_0" index="0" speed="3.65" length="4.67" shape="280.23,236.16 279.03,236.96 278.63,237.76 279.03,238.56 280.23,239.36"/>
    </edge>
    <edge id=":B1_3" function="internal">
        <lane id=":B1_3_0" index="0" speed="6.60" length="7.09" shape="274.91,243.23 275.71,241.54 276.87,240.33 278.37,239.61 280.23,239.36"/>
    </edge>
    <edge id=":B1_4" function="internal">
        <lane id=":B1_4_0" index="0" speed="13.14" length="11.22" shape="274.91,243.23 275.77,240.19 276.06,237.76 275.77,235.34 274.91,232.29"/>
    </edge>
    <edge id=":B1_5" function="internal">
        <lane id=":B1_5_0" index="0" speed="3.65" length="2.34" shape="274.91,243.23 274.52,241.85 273.88,241.22"/>
    </edge>
    <edge id=":B1_9" function="internal">
        <lane id=":B1_9_0" index="0" speed="3.65" length="2.34" shape="273.88,241.22 272.99,241.35 271.86,242.24"/>
    </edge>
    <edge id=":B1_6" function="internal">
        <lane id=":B1_6_0" index="0" speed="11.95" length="9.23" shape="271.86,233.28 272.64,235.88 272.90,237.76 272.64,239.65 271.86,242.24"/>
    </edge>
    <edge id=":B1_7" function="internal">
        <lane id=":B1_7_0" index="0" speed="8.13" length="4.78" shape="271.86,233.28 273.13,235.94 274.39,237.27"/>
    </edge>
    <edge id=":B1_8" function="internal">
        <lane id=":B1_8_0" index="0" speed="3.65" length="2.34" shape="271.86,233.28 272.99,234.18 273.88,234.31"/>
    </edge>
    <edge id=":B1_10" function="internal">
        <lane id=":B1_10_0" index="0" speed="8.13" length="6.37" shape="274.39,237.27 274.94,237.84 277.31,238.98 280.23,239.36"/>
    </edge>
    <edge id=":B1_11" function="internal">
        <lane id=":B1_11_0" index="0" speed="3.65" length="2.34" shape="273.88,234.31 274.52,233.68 274.91,232.29"/>
    </edge>
    <edge id=":B10_0" function="internal">
        <lane id=":B10_0_0" index="0" speed="6.60" length="7.09" shape="273.52,218.70 271.87,219.60 270.23,219.90 268.58,219.60 266.93,218.70"/>
    </edge>
    <edge id=":B10_1" function="internal">
        <lane id=":B10_1_0" index="0" speed="8.13" length="11.15" shape="273.52,218.70 271.38,220.72 270.13,223.04 269.78,225.64 270.32,228.54"/>
    </edge>
    <edge id=":B10_2" function="internal">
        <lane id=":B10_2_0" index="0" speed="3.65" length="4.67" shape="273.52,218.70 273.02,220.05 273.16,220.94 273.96,221.35 275.40,221.29"/>
    </edge>
    <edge id=":B10_3" function="internal">
        <lane id=":B10_3_0" index="0" speed="6.60" length="7.09" shape="273.36,227.55 273.02,225.71 273.24,224.05 274.04,222.58 275.40,221.29"/>
    </edge>
    <edge id=":B10_4" function="internal">
        <lane id=":B10_4_0" index="0" speed="13.14" length="11.22" shape="273.36,227.55 272.28,224.57 271.09,222.44 269.43,220.65 266.93,218.70"/>
    </edge>
    <edge id=":B10_5" function="internal">
        <lane id=":B10_5_0" index="0" speed="3.65" length="2.34" shape="273.36,227.55 272.23,226.66 271.35,226.52"/>
    </edge>
    <edge id=":B10_9" function="internal">
        <lane id=":B10_9_0" index="0" speed="3.65" length="2.34" shape="271.35,226.52 270.71,227.15 270.32,228.54"/>
    </edge>
    <edge id=":B10_6" function="internal">
        <lane id=":B10_6_0" index="0" speed="11.95" length="9.23" shape="265.05,221.29 267.21,222.93 268.53,224.30 269.42,225.98 270.32,228.54"/>
    </edge>
    <edge id=":B10_7" function="internal">
        <lane id=":B10_7_0" index="0" speed="8.13" length="4.78" shape="265.05,221.29 267.64,222.70 269.44,223.03"/>
    </edge>
    <edge id=":B10_8" function="internal">
        <lane id=":B10_8_0" index="0" speed="3.65" length="2.34" shape="265.05,221.29 266.49,221.35 267.29,220.94"/>
    </edge>
    <edge id=":B10_10" function="internal">
        <lane id=":B10_10_0" index="0" speed="8.13" length="6.37" shape="269.44,223.03 270.23,223.17 272.81,222.70 275.40,221.29"/>
    </edge>
    <edge id=":B10_11" function="internal">
        <lane id=":B10_11_0" index="0" speed="3.65" length="2.34" shape="267.29,220.94 267.43,220.05 266.93,218.70"/>
    </edge>
    <edge id=":B2_0" function="internal">
        <lane id=":B2_0_0" index="0" speed="11.95" length="9.23" shape="270.32,246.99 269.42,249.55 268.53,251.22 267.21,252.59 265.05,254.24"/>
    </edge>
    <edge id=":B2_1" function="internal">
        <lane id=":B2_1_0" index="0" speed="8.13" length="4.78" shape="270.32,246.99 269.78,249.88 270.03,251.70"/>
    </edge>
    <edge id=":B2_2" function="internal">
        <lane id=":B2_2_0" index="0" speed="3.65" length="2.34" shape="270.32,246.99 270.71,248.38 271.35,249.01"/>
    </edge>
    <edge id=":B2_9" function="internal">
        <lane id=":B2_9_0" index="0" speed="8.13" length="6.37" shape="270.03,251.70 270.13,252.49 271.38,254.80 273.52,256.83"/>
    </edge>
    <edge id=":B2_10" function="internal">
        <lane id=":B2_10_0" index="0" speed="3.65" length="2.34" shape="271.35,249.01 272.23,248.87 273.36,247.98"/>
    </edge>
    <edge id=":B2_3" function="internal">
        <lane id=":B2_3_0" index="0" speed="6.60" length="7.09" shape="275.40,254.24 274.04,252.95 273.24,251.48 273.02,249.82 273.36,247.98"/>
    </edge>
    <edge id=":B2_4" function="internal">
        <lane id=":B2_4_0" index="0" speed="8.13" length="11.15" shape="275.40,254.24 272.81,252.83 270.23,252.36 267.64,252.83 265.05,254.24"/>
    </edge>
    <edge id=":B2_5" function="internal">
        <lane id=":B2_5_0" index="0" speed="3.65" length="4.67" shape="275.40,254.24 273.96,254.18 273.16,254.59 273.02,255.48 273.52,256.83"/>
    </edge>
    <edge id=":B2_6" function="internal">
        <lane id=":B2_6_0" index="0" speed="6.60" length="7.09" shape="266.93,256.83 268.58,255.93 270.23,255.63 271.87,255.93 273.52,256.83"/>
    </edge>
    <edge id=":B2_7" function="internal">
        <lane id=":B2_7_0" index="0" speed="13.14" length="11.22" shape="266.93,256.83 269.43,254.87 271.09,253.08 272.28,250.95 273.36,247.98"/>
    </edge>
    <edge id=":B2_8" function="internal">
        <lane id=":B2_8_0" index="0" speed="3.65" length="2.34" shape="266.93,256.83 267.43,255.48 267.29,254.59"/>
    </edge>
    <edge id=":B2_11" function="internal">
        <lane id=":B2_11_0" index="0" speed="3.65" length="2.34" shape="267.29,254.59 266.49,254.18 265.05,254.24"/>
    </edge>
    <edge id=":B3_0" function="internal">
        <lane id=":B3_0_0" index="0" speed="11.95" length="9.23" shape="261.02,257.17 258.79,258.72 257.08,259.54 255.21,259.88 252.49,259.94"/>
    </edge>
    <edge id=":B3_1" function="internal">
        <lane id=":B3_1_0" index="0" speed="8.13" length="4.78" shape="261.02,257.17 258.88,259.20 258.01,260.81"/>
    </edge>
    <edge id=":B3_2" function="internal">
        <lane id=":B3_2_0" index="0" speed="3.65" length="2.34" shape="261.02,257.17 260.52,258.52 260.66,259.41"/>
    </edge>
    <edge id=":B3_9" function="internal">
        <lane id=":B3_9_0" index="0" speed="8.13" length="6.37" shape="258.01,260.81 257.63,261.51 257.28,264.11 257.82,267.01"/>
    </edge>
    <edge id=":B3_10" function="internal">
        <lane id=":B3_10_0" index="0" speed="3.65" length="2.34" shape="260.66,259.41 261.46,259.82 262.90,259.76"/>
    </edge>
    <edge id=":B3_3" function="internal">
        <lane id=":B3_3_0" index="0" speed="6.60" length="7.09" shape="260.86,266.02 260.52,264.18 260.74,262.52 261.54,261.05 262.90,259.76"/>
    </edge>
    <edge id=":B3_4" function="internal">
        <lane id=":B3_4_0" index="0" speed="8.13" length="11.15" shape="260.86,266.02 259.60,263.36 257.78,261.46 255.41,260.32 252.49,259.94"/>
    </edge>
    <edge id=":B3_5" function="internal">
        <lane id=":B3_5_0" index="0" speed="3.65" length="4.67" shape="260.86,266.02 259.73,265.13 258.85,264.99 258.21,265.62 257.82,267.01"/>
    </edge>
    <edge id=":B3_6" function="internal">
        <lane id=":B3_6_0" index="0" speed="6.60" length="7.09" shape="252.49,263.14 254.35,263.38 255.86,264.11 257.02,265.32 257.82,267.01"/>
    </edge>
    <edge id=":B3_7" function="internal">
        <lane id=":B3_7_0" index="0" speed="13.14" length="11.22" shape="252.49,263.14 255.66,263.03 258.05,262.55 260.27,261.53 262.90,259.76"/>
    </edge>
    <edge id=":B3_8" function="internal">
        <lane id=":B3_8_0" index="0" speed="3.65" length="2.34" shape="252.49,263.14 253.69,262.34 254.09,261.54"/>
    </edge>
    <edge id=":B3_11" function="internal">
        <lane id=":B3_11_0" index="0" speed="3.65" length="2.34" shape="254.09,261.54 253.69,260.74 252.49,259.94"/>
    </edge>
    <edge id=":B4_0" function="internal">
        <lane id=":B4_0_0" index="0" speed="11.95" length="9.23" shape="247.51,259.94 244.79,259.88 242.92,259.54 241.21,258.72 238.98,257.17"/>
    </edge>
    <edge id=":B4_1" function="internal">
        <lane id=":B4_1_0" index="0" speed="8.13" length="4.78" shape="247.51,259.94 244.59,260.32 242.93,261.12"/>
    </edge>
    <edge id=":B4_2" function="internal">
        <lane id=":B4_2_0" index="0" speed="3.65" length="2.34" shape="247.51,259.94 246.31,260.74 245.91,261.54"/>
    </edge>
    <edge id=":B4_9" function="internal">
        <lane id=":B4_9_0" index="0" speed="8.13" length="6.37" shape="242.93,261.12 242.22,261.46 240.40,263.36 239.14,266.02"/>
    </edge>
    <edge id=":B4_10" function="internal">
        <lane id=":B4_10_0" index="0" speed="3.65" length="2.34" shape="245.91,261.54 246.31,262.34 247.51,263.14"/>
    </edge>
    <edge id=":B4_3" function="internal">
        <lane id=":B4_3_0" index="0" speed="6.60" length="7.09" shape="242.18,267.01 242.98,265.32 244.14,264.11 245.65,263.38 247.51,263.14"/>
    </edge>
    <edge id=":B4_4" function="internal">
        <lane id=":B4_4_0" index="0" speed="8.13" length="11.15" shape="242.18,267.01 242.72,264.11 242.37,261.51 241.12,259.20 238.98,257.17"/>
    </edge>
    <edge id=":B4_5" function="internal">
        <lane id=":B4_5_0" index="0" speed="3.65" length="4.67" shape="242.18,267.01 241.79,265.62 241.15,264.99 240.27,265.13 239.14,266.02"/>
    </edge>
    <edge id=":B4_6" function="internal">
        <lane id=":B4_6_0" index="0" speed="6.60" length="7.09" shape="237.10,259.76 238.46,261.05 239.26,262.52 239.48,264.18 239.14,266.02"/>
    </edge>
    <edge id=":B4_7" function="internal">
        <lane id=":B4_7_0" index="0" speed="13.14" length="11.22" shape="237.10,259.76 239.73,261.53 241.95,262.55 244.34,263.03 247.51,263.14"/>
    </edge>
    <edge id=":B4_8" function="internal">
        <lane id=":B4_8_0" index="0" speed="3.65" length="2.34" shape="237.10,259.76 238.54,259.82 239.34,259.41"/>
    </edge>
    <edge id=":B4_11" function="internal">
        <lane id=":B4_11_0" index="0" speed="3.65" length="2.34" shape="239.34,259.41 239.48,258.52 238.98,257.17"/>
    </edge>
    <edge id=":B5_0" function="internal">
        <lane id=":B5_0_0" index="0" speed="11.95" length="9.23" shape="234.95,254.24 232.79,252.59 231.47,251.22 230.58,249.55 229.68,246.99"/>
    </edge>
    <edge id=":B5_1" function="internal">
        <lane id=":B5_1_0" index="0" speed="8.13" length="4.78" shape="234.95,254.24 232.36,252.83 230.56,252.50"/>
    </edge>
    <edge id=":B5_2" function="internal">
        <lane id=":B5_2_0" index="0" speed="3.65" length="2.34" shape="234.95,254.24 233.51,254.18 232.71,254.59"/>
    </edge>
    <edge id=":B5_9" function="internal">
        <lane id=":B5_9_0" index="0" speed="8.13" length="6.37" shape="230.56,252.50 229.77,252.36 227.19,252.83 224.60,254.24"/>
    </edge>
    <edge id=":B5_10" function="internal">
        <lane id=":B5_10_0" index="0" speed="3.65" length="2.34" shape="232.71,254.59 232.57,255.48 233.07,256.83"/>
    </edge>
    <edge id=":B5_3" function="internal">
        <lane id=":B5_3_0" index="0" speed="6.60" length="7.09" shape="226.48,256.83 228.13,255.93 229.77,255.63 231.42,255.93 233.07,256.83"/>
    </edge>
    <edge id=":B5_4" function="internal">
        <lane id=":B5_4_0" index="0" speed="8.13" length="11.15" shape="226.48,256.83 228.62,254.80 229.87,252.49 230.22,249.88 229.68,246.99"/>
    </edge>
    <edge id=":B5_5" function="internal">
        <lane id=":B5_5_0" index="0" speed="3.65" length="4.67" shape="226.48,256.83 226.98,255.48 226.84,254.59 226.04,254.18 224.60,254.24"/>
    </edge>
    <edge id=":B5_6" function="internal">
        <lane id=":B5_6_0" index="0" speed="6.60" length="7.09" shape="226.64,247.98 226.98,249.82 226.76,251.48 225.96,252.95 224.60,254.24"/>
    </edge>
    <edge id=":B5_7" function="internal">
        <lane id=":B5_7_0" index="0" speed="13.14" length="11.22" shape="226.64,247.98 227.72,250.95 228.91,253.08 230.57,254.87 233.07,256.83"/>
    </edge>
    <edge id=":B5_8" function="internal">
        <lane id=":B5_8_0" index="0" speed="3.65" length="2.34" shape="226.64,247.98 227.77,248.87 228.65,249.01"/>
    </edge>
    <edge id=":B5_11" function="internal">
        <lane id=":B5_11_0" index="0" speed="3.65" length="2.34" shape="228.65,249.01 229.29,248.38 229.68,246.99"/>
    </edge>
    <edge id=":B6_0" function="internal">
        <lane id=":B6_0_0" index="0" speed="6.60" length="7.09" shape="225.09,232.29 224.29,233.99 223.13,235.20 221.63,235.92 219.77,236.16"/>
    </edge>
    <edge id=":B6_1" function="internal">
        <lane id=":B6_1_0" index="0" speed="13.14" length="11.22" shape="225.09,232.29 224.23,235.34 223.94,237.76 224.23,240.19 225.09,243.23"/>
    </edge>
    <edge id=":B6_2" function="internal">
        <lane id=":B6_2_0" index="0" speed="3.65" length="2.34" shape="225.09,232.29 225.48,233.68 226.12,234.31"/>
    </edge>
    <edge id=":B6_9" function="internal">
        <lane id=":B6_9_0" index="0" speed="3.65" length="2.34" shape="226.12,234.31 227.01,234.18 228.14,233.28"/>
    </edge>
    <edge id=":B6_3" function="internal">
        <lane id=":B6_3_0" index="0" speed="11.95" length="9.23" shape="228.14,242.24 227.36,239.65 227.10,237.76 227.36,235.88 228.14,233.28"/>
    </edge>
    <edge id=":B6_4" function="internal">
        <lane id=":B6_4_0" index="0" speed="8.13" length="4.78" shape="228.14,242.24 226.87,239.58 225.61,238.26"/>
    </edge>
    <edge id=":B6_5" function="internal">
        <lane id=":B6_5_0" index="0" speed="3.65" length="2.34" shape="228.14,242.24 227.01,241.35 226.12,241.22"/>
    </edge>
    <edge id=":B6_10" function="internal">
        <lane id=":B6_10_0" index="0" speed="8.13" length="6.37" shape="225.61,238.26 225.06,237.68 222.69,236.54 219.77,236.16"/>
    </edge>
    <edge id=":B6_11" function="internal">
        <lane id=":B6_11_0" index="0" speed="3.65" length="2.34" shape="226.12,241.22 225.48,241.85 225.09,243.23"/>
    </edge>
    <edge id=":B6_6" function="internal">
        <lane id=":B6_6_0" index="0" speed="6.60" length="7.09" shape="219.77,239.36 221.63,239.61 223.13,240.33 224.29,241.54 225.09,243.23"/>
    </edge>
    <edge id=":B6_7" function="internal">
        <lane id=":B6_7_0" index="0" speed="8.13" length="11.15" shape="219.77,239.36 222.69,238.98 225.06,237.84 226.87,235.94 228.14,233.28"/>
    </edge>
    <edge id=":B6_8" function="internal">
        <lane id=":B6_8_0" index="0" speed="3.65" length="4.67" shape="219.77,239.36 220.97,238.56 221.37,237.76 220.97,236.96 219.77,236.16"/>
    </edge>
    <edge id=":B7_0" function="internal">
        <lane id=":B7_0_0" index="0" speed="6.60" length="7.09" shape="233.07,218.70 231.42,219.60 229.77,219.90 228.13,219.60 226.48,218.70"/>
    </edge>
    <edge id=":B7_1" function="internal">
        <lane id=":B7_1_0" index="0" speed="13.14" length="11.22" shape="233.07,218.70 230.57,220.65 228.91,222.44 227.72,224.57 226.64,227.55"/>
    </edge>
    <edge id=":B7_2" function="internal">
        <lane id=":B7_2_0" index="0" speed="3.65" length="2.34" shape="233.07,218.70 232.57,220.05 232.71,220.94"/>
    </edge>
    <edge id=":B7_9" function="internal">
        <lane id=":B7_9_0" index="0" speed="3.65" length="2.34" shape="232.71,220.94 233.51,221.35 234.95,221.29"/>
    </edge>
    <edge id=":B7_3" function="internal">
        <lane id=":B7_3_0" index="0" speed="11.95" length="9.23" shape="229.68,228.54 230.58,225.98 231.47,224.30 232.79,222.93 234.95,221.29"/>
    </edge>
    <edge id=":B7_4" function="internal">
        <lane id=":B7_4_0" index="0" speed="8.13" length="4.78" shape="229.68,228.54 230.22,225.64 229.97,223.83"/>
    </edge>
    <edge id=":B7_5" function="internal">
        <lane id=":B7_5_0" index="0" speed="3.65" length="2.34" shape="229.68,228.54 229.29,227.15 228.65,226.52"/>
    </edge>
    <edge id=":B7_10" function="internal">
        <lane id=":B7_10_0" index="0" speed="8.13" length="6.37" shape="229.97,223.83 229.87,223.04 228.62,220.72 226.48,218.70"/>
    </edge>
    <edge id=":B7_11" function="internal">
        <lane id=":B7_11_0" index="0" speed="3.65" length="2.34" shape="228.65,226.52 227.77,226.66 226.64,227.55"/>
    </edge>
    <edge id=":B7_6" function="internal">
        <lane id=":B7_6_0" index="0" speed="6.60" length="7.09" shape="224.60,221.29 225.96,222.58 226.76,224.05 226.98,225.71 226.64,227.55"/>
    </edge>
    <edge id=":B7_7" function="internal">
        <lane id=":B7_7_0" index="0" speed="8.13" length="11.15" shape="224.60,221.29 227.19,222.70 229.77,223.17 232.36,222.70 234.95,221.29"/>
    </edge>
    <edge id=":B7_8" function="internal">
        <lane id=":B7_8_0" index="0" speed="3.65" length="4.67" shape="224.60,221.29 226.04,221.35 226.84,220.94 226.98,220.05 226.48,218.70"/>
    </edge>
    <edge id=":B8_0" function="internal">
        <lane id=":B8_0_0" index="0" speed="6.60" length="7.09" shape="247.51,212.39 245.65,212.15 244.14,211.42 242.98,210.21 242.18,208.52"/>
    </edge>
    <edge id=":B8_1" function="internal">
        <lane id=":B8_1_0" index="0" speed="13.14" length="11.22" shape="247.51,212.39 244.34,212.50 241.95,212.98 239.73,214.00 237.10,215.77"/>
    </edge>
    <edge id=":B8_2" function="internal">
        <lane id=":B8_2_0" index="0" speed="3.65" length="2.34" shape="247.51,212.39 246.31,213.19 245.91,213.99"/>
    </edge>
    <edge id=":B8_9" function="internal">
        <lane id=":B8_9_0" index="0" speed="3.65" length="2.34" shape="245.91,213.99 246.31,214.79 247.51,215.59"/>
    </edge>
    <edge id=":B8_3" function="internal">
        <lane id=":B8_3_0" index="0" speed="11.95" length="9.23" shape="238.98,218.36 241.21,216.81 242.92,215.98 244.79,215.65 247.51,215.59"/>
    </edge>
    <edge id=":B8_4" function="internal">
        <lane id=":B8_4_0" index="0" speed="8.13" length="4.78" shape="238.98,218.36 241.12,216.33 241.99,214.72"/>
    </edge>
    <edge id=":B8_5" function="internal">
        <lane id=":B8_5_0" index="0" speed="3.65" length="2.34" shape="238.98,218.36 239.48,217.00 239.34,216.12"/>
    </edge>
    <edge id=":B8_10" function="internal">
        <lane id=":B8_10_0" index="0" speed="8.13" length="6.37" shape="241.99,214.72 242.37,214.02 242.72,211.41 242.18,208.52"/>
    </edge>
    <edge id=":B8_11" function="internal">
        <lane id=":B8_11_0" index="0" speed="3.65" length="2.34" shape="239.34,216.12 238.54,215.71 237.10,215.77"/>
    </edge>
    <edge id=":B8_6" function="internal">
        <lane id=":B8_6_0" index="0" speed="6.60" length="7.09" shape="239.14,209.51 239.48,211.35 239.26,213.01 238.46,214.48 237.10,215.77"/>
    </edge>
    <edge id=":B8_7" function="internal">
        <lane id=":B8_7_0" index="0" speed="8.13" length="11.15" shape="239.14,209.51 240.40,212.17 242.22,214.07 244.59,215.21 247.51,215.59"/>
    </edge>
    <edge id=":B8_8" function="internal">
        <lane id=":B8_8_0" index="0" speed="3.65" length="4.67" shape="239.14,209.51 240.27,210.40 241.15,210.53 241.79,209.91 242.18,208.52"/>
    </edge>
    <edge id=":B9_0" function="internal">
        <lane id=":B9_0_0" index="0" speed="6.60" length="7.09" shape="257.82,208.52 257.02,210.21 255.86,211.42 254.35,212.15 252.49,212.39"/>
    </edge>
    <edge id=":B9_1" function="internal">
        <lane id=":B9_1_0" index="0" speed="8.13" length="11.15" shape="257.82,208.52 257.28,211.41 257.63,214.02 258.88,216.33 261.02,218.36"/>
    </edge>
    <edge id=":B9_2" function="internal">
        <lane id=":B9_2_0" index="0" speed="3.65" length="4.67" shape="257.82,208.52 258.21,209.91 258.85,210.53 259.73,210.40 260.86,209.51"/>
    </edge>
    <edge id=":B9_3" function="internal">
        <lane id=":B9_3_0" index="0" speed="6.60" length="7.09" shape="262.90,215.77 261.54,214.48 260.74,213.01 260.52,211.35 260.86,209.51"/>
    </edge>
    <edge id=":B9_4" function="internal">
        <lane id=":B9_4_0" index="0" speed="13.14" length="11.22" shape="262.90,215.77 260.27,214.00 258.05,212.98 255.66,212.50 252.49,212.39"/>
    </edge>
    <edge id=":B9_5" function="internal">
        <lane id=":B9_5_0" index="0" speed="3.65" length="2.34" shape="262.90,215.77 261.46,215.71 260.66,216.12"/>
    </edge>
    <edge id=":B9_9" function="internal">
        <lane id=":B9_9_0" index="0" speed="3.65" length="2.34" shape="260.66,216.12 260.52,217.00 261.02,218.36"/>
    </edge>
    <edge id=":B9_6" function="internal">
        <lane id=":B9_6_0" index="0" speed="11.95" length="9.23" shape="252.49,215.59 255.21,215.65 257.08,215.98 258.79,216.81 261.02,218.36"/>
    </edge>
    <edge id=":B9_7" function="internal">
        <lane id=":B9_7_0" index="0" speed="8.13" length="4.78" shape="252.49,215.59 255.41,215.21 257.07,214.41"/>
    </edge>
    <edge id=":B9_8" function="internal">
        <lane id=":B9_8_0" index="0" speed="3.65" length="2.34" shape="252.49,215.59 253.69,214.79 254.09,213.99"/>
    </edge>
    <edge id=":B9_10" function="internal">
        <lane id=":B9_10_0" index="0" speed="8.13" length="6.37" shape="257.07,214.41 257.78,214.07 259.60,212.17 260.86,209.51"/>
    </edge>
    <edge id=":B9_11" function="internal">
        <lane id=":B9_11_0" index="0" speed="3.65" length="2.34" shape="254.09,213.99 253.69,213.19 252.49,212.39"/>
    </edge>
    <edge id=":C1_0" function="internal">
        <lane id=":C1_0_0" index="0" speed="8.02" length="10.85" shape="306.32,236.16 303.93,235.73 301.89,234.44 300.23,232.29 298.92,229.28"/>
    </edge>
    <edge id=":C1_1" function="internal">
        <lane id=":C1_1_0" index="0" speed="13.89" length="14.73" shape="306.32,236.16 291.60,236.16"/>
    </edge>
    <edge id=":C1_2" function="internal">
        <lane id=":C1_2_0" index="0" speed="9.31" length="5.54" shape="306.32,236.16 302.86,236.73 301.11,237.76"/>
    </edge>
    <edge id=":C1_3" function="internal">
        <lane id=":C1_3_0" index="0" speed="3.65" length="2.34" shape="306.32,236.16 305.12,236.96 304.72,237.76"/>
    </edge>
    <edge id=":C1_16" function="internal">
        <lane id=":C1_16_0" index="0" speed="9.31" length="9.36" shape="301.11,237.76 299.97,238.44 297.64,241.28 295.88,245.26"/>
    </edge>
    <edge id=":C1_17" function="internal">
        <lane id=":C1_17_0" index="0" speed="3.65" length="2.34" shape="304.72,237.76 305.12,238.56 306.32,239.36"/>
    </edge>
    <edge id=":C1_4" function="internal">
        <lane id=":C1_4_0" index="0" speed="8.02" length="10.85" shape="298.92,246.25 300.23,243.24 301.89,241.09 303.93,239.79 306.32,239.36"/>
    </edge>
    <edge id=":C1_5" function="internal">
        <lane id=":C1_5_0" index="0" speed="13.89" length="17.18" shape="298.92,246.25 299.79,242.26 300.08,237.76 299.79,233.27 298.92,229.28"/>
    </edge>
    <edge id=":C1_6" function="internal">
        <lane id=":C1_6_0" index="0" speed="7.56" length="15.55" shape="298.92,246.25 299.70,241.84 298.73,238.69 296.03,236.79 291.60,236.16"/>
    </edge>
    <edge id=":C1_7" function="internal">
        <lane id=":C1_7_0" index="0" speed="3.65" length="4.67" shape="298.92,246.25 298.53,244.86 297.90,244.24 297.01,244.37 295.88,245.26"/>
    </edge>
    <edge id=":C1_8" function="internal">
        <lane id=":C1_8_0" index="0" speed="5.93" length="9.09" shape="291.60,239.36 294.19,239.73 295.77,240.84 296.33,242.68 295.88,245.26"/>
    </edge>
    <edge id=":C1_9" function="internal">
        <lane id=":C1_9_0" index="0" speed="13.89" length="14.73" shape="291.60,239.36 306.32,239.36"/>
    </edge>
    <edge id=":C1_10" function="internal">
        <lane id=":C1_10_0" index="0" speed="7.56" length="6.17" shape="291.60,239.36 296.03,238.73 297.42,237.76"/>
    </edge>
    <edge id=":C1_11" function="internal">
        <lane id=":C1_11_0" index="0" speed="3.65" length="2.34" shape="291.60,239.36 292.80,238.56 293.20,237.76"/>
    </edge>
    <edge id=":C1_18" function="internal">
        <lane id=":C1_18_0" index="0" speed="7.56" length="9.38" shape="297.42,237.76 298.73,236.84 299.70,233.69 298.92,229.28"/>
    </edge>
    <edge id=":C1_19" function="internal">
        <lane id=":C1_19_0" index="0" speed="3.65" length="2.34" shape="293.20,237.76 292.80,236.96 291.60,236.16"/>
    </edge>
    <edge id=":C1_12" function="internal">
        <lane id=":C1_12_0" index="0" speed="5.93" length="9.09" shape="295.88,230.27 296.33,232.85 295.77,234.69 294.19,235.80 291.60,236.16"/>
    </edge>
    <edge id=":C1_13" function="internal">
        <lane id=":C1_13_0" index="0" speed="13.89" length="15.22" shape="295.88,230.27 296.75,233.95 297.04,237.76 296.75,241.58 295.88,245.26"/>
    </edge>
    <edge id=":C1_14" function="internal">
        <lane id=":C1_14_0" index="0" speed="9.31" length="14.89" shape="295.88,230.27 297.64,234.25 299.97,237.09 302.86,238.80 306.32,239.36"/>
    </edge>
    <edge id=":C1_15" function="internal">
        <lane id=":C1_15_0" index="0" speed="3.65" length="4.67" shape="295.88,230.27 297.01,231.16 297.90,231.29 298.53,230.67 298.92,229.28"/>
    </edge>
    <edge id=":C10_0" function="internal">
        <lane id=":C10_0_0" index="0" speed="8.02" length="10.85" shape="294.63,203.36 292.43,204.42 290.03,204.57 287.42,203.81 284.59,202.14"/>
    </edge>
    <edge id=":C10_1" function="internal">
        <lane id=":C10_1_0" index="0" speed="13.89" length="14.73" shape="294.63,203.36 282.71,212.02"/>
    </edge>
    <edge id=":C10_2" function="internal">
        <lane id=":C10_2_0" index="0" speed="9.31" length="5.54" shape="294.63,203.36 292.16,205.86 291.35,207.72"/>
    </edge>
    <edge id=":C10_3" function="internal">
        <lane id=":C10_3_0" index="0" speed="3.65" length="2.34" shape="294.63,203.36 294.13,204.72 294.27,205.60"/>
    </edge>
    <edge id=":C10_16" function="internal">
        <lane id=":C10_16_0" index="0" speed="9.31" length="9.36" shape="291.35,207.72 290.82,208.94 290.61,212.61 291.53,216.86"/>
    </edge>
    <edge id=":C10_17" function="internal">
        <lane id=":C10_17_0" index="0" speed="3.65" length="2.34" shape="294.27,205.60 295.07,206.01 296.51,205.95"/>
    </edge>
    <edge id=":C10_4" function="internal">
        <lane id=":C10_4_0" index="0" speed="8.02" length="10.85" shape="294.57,215.87 293.85,212.67 293.94,209.95 294.82,207.71 296.51,205.95"/>
    </edge>
    <edge id=":C10_5" function="internal">
        <lane id=":C10_5_0" index="0" speed="13.89" length="17.18" shape="294.57,215.87 292.93,212.13 290.52,208.33 287.64,204.86 284.59,202.14"/>
    </edge>
    <edge id=":C10_6" function="internal">
        <lane id=":C10_6_0" index="0" speed="7.56" length="15.55" shape="294.57,215.87 292.60,211.85 289.97,209.87 286.67,209.92 282.71,212.02"/>
    </edge>
    <edge id=":C10_7" function="internal">
        <lane id=":C10_7_0" index="0" speed="3.65" length="4.67" shape="294.57,215.87 293.44,214.98 292.55,214.85 291.92,215.47 291.53,216.86"/>
    </edge>
    <edge id=":C10_8" function="internal">
        <lane id=":C10_8_0" index="0" speed="5.93" length="9.09" shape="284.59,214.61 286.91,213.38 288.83,213.35 290.37,214.51 291.53,216.86"/>
    </edge>
    <edge id=":C10_9" function="internal">
        <lane id=":C10_9_0" index="0" speed="13.89" length="14.73" shape="284.59,214.61 296.51,205.95"/>
    </edge>
    <edge id=":C10_10" function="internal">
        <lane id=":C10_10_0" index="0" speed="7.56" length="6.17" shape="284.59,214.61 287.81,211.49 288.36,209.89"/>
    </edge>
    <edge id=":C10_11" function="internal">