<configuration>
    <input>
        <net-file value="net.net.xml"/>
        <route-files value="rou5000.rou.xml"/>
    </input>
</configuration>
