<?xml version="1.0" encoding="UTF-8"?>
<!-- generated on 2019-04-03 11:14:26.190836 by $Id$
  options: -n net.net.xml -b 1 -e 101 -p .03333333333333333333 -r out-10-10/./rou3000.rou.xml
-->
<routes xmlns:xsi="http://www.w3.org/2001/XMLSchema-instance" xsi:noNamespaceSchemaLocation="http://sumo.dlr.de/xsd/routes_file.xsd">
    <trip id="0" depart="1.00" from="E1F1" to="I6I7"/>
    <trip id="1" depart="1.03" from="D5E5" to="I3H3"/>
    <trip id="2" depart="1.07" from="E9F9" to="H4G4"/>
    <trip id="3" depart="1.10" from="G4G5" to="D5D4"/>
    <trip id="4" depart="1.13" from="K9K8" to="E8F8"/>
    <trip id="5" depart="1.17" from="I3J3" to="B4B5"/>
    <trip id="6" depart="1.20" from="I3H3" to="D2D3"/>
    <trip id="7" depart="1.23" from="J2J3" to="C7B7"/>
    <trip id="8" depart="1.27" from="I1I2" to="D8D7"/>
    <trip id="9" depart="1.30" from="K5K6" to="F9F8"/>
    <trip id="10" depart="1.33" from="E6F6" to="I6H6"/>
    <trip id="11" depart="1.37" from="C6C5" to="G3H3"/>
    <trip id="12" depart="1.40" from="J9K9" to="C5B5"/>
    <trip id="13" depart="1.43" from="K7J7" to="G4G3"/>
    <trip id="14" depart="1.47" from="B1B10" to="H8H9"/>
    <trip id="15" depart="1.50" from="H10I10" to="J5J6"/>
    <trip id="16" depart="1.53" from="E5D5" to="G10F10"/>
    <trip id="17" depart="1.57" from="D5D6" to="E6F6"/>
    <trip id="18" depart="1.60" from="B1B2" to="E3D3"/>
    <trip id="19" depart="1.63" from="H6H5" to="K8J8"/>
    <trip id="20" depart="1.67" from="B5B4" to="I2H2"/>
    <trip id="21" depart="1.70" from="G8G9" to="I6I5"/>
    <trip id="22" depart="1.73" from="I10I1" to="B7B8"/>
    <trip id="23" depart="1.77" from="D10C10" to="F9F10"/>
    <trip id="24" depart="1.80" from="K8K7" to="D8E8"/>
    <trip id="25" depart="1.83" from="H8H9" to="I9H9"/>
    <trip id="26" depart="1.87" from="C4C3" to="C9B9"/>
    <trip id="27" depart="1.90" from="F9E9" to="D4D3"/>
    <trip id="28" depart="1.93" from="J10J9" to="I9J9"/>
    <trip id="29" depart="1.97" from="C8D8" to="D6D7"/>
    <trip id="30" depart="2.00" from="F10E10" to="F2E2"/>
    <trip id="31" depart="2.03" from="F7G7" to="F10E10"/>
    <trip id="32" depart="2.07" from="F6F5" to="E3D3"/>
    <trip id="33" depart="2.10" from="D4E4" to="H2H1"/>
    <trip id="34" depart="2.13" from="F5F6" to="D7E7"/>
    <trip id="35" depart="2.17" from="F10F9" to="E10E9"/>
    <trip id="36" depart="2.20" from="H9G9" to="J1K1"/>
    <trip id="37" depart="2.23" from="B5B4" to="F7E7"/>
    <trip id="38" depart="2.27" from="H6H7" to="I10J10"/>
    <trip id="39" depart="2.30" from="B3B2" to="G7G8"/>
    <trip id="40" depart="2.33" from="C7D7" to="C10C1"/>
    <trip id="41" depart="2.37" from="H9G9" to="K4K5"/>
    <trip id="42" depart="2.40" from="I3I4" to="I9I10"/>
    <trip id="43" depart="2.43" from="I6H6" to="J8K8"/>
    <trip id="44" depart="2.47" from="D10C10" to="I10I9"/>
    <trip id="45" depart="2.50" from="H1I1" to="K4K3"/>
    <trip id="46" depart="2.53" from="G9G8" to="G6H6"/>
    <trip id="47" depart="2.57" from="G9G8" to="C10C9"/>
    <trip id="48" depart="2.60" from="E5D5" to="H8I8"/>
    <trip id="49" depart="2.63" from="K10J10" to="G4G5"/>
    <trip id="50" depart="2.67" from="F3G3" to="C6D6"/>
    <trip id="51" depart="2.70" from="I9J9" to="I4J4"/>
    <trip id="52" depart="2.73" from="K3K4" to="D5E5"/>
    <trip id="53" depart="2.77" from="J1K1" to="F5E5"/>
    <trip id="54" depart="2.80" from="H7H8" to="H10H9"/>
    <trip id="55" depart="2.83" from="D3C3" to="C10B10"/>
    <trip id="56" depart="2.87" from="J9I9" to="I4I5"/>
    <trip id="57" depart="2.90" from="G5G4" to="J9I9"/>
    <trip id="58" depart="2.93" from="G4G5" to="F6F7"/>
    <trip id="59" depart="2.97" from="F5F4" to="G5F5"/>
    <trip id="60" depart="3.00" from="J6J7" to="I2J2"/>
    <trip id="61" depart="3.03" from="H2H1" to="I10I1"/>
    <trip id="62" depart="3.07" from="K8K9" to="F3E3"/>
    <trip id="63" depart="3.10" from="C10D10" to="E6D6"/>
    <trip id="64" depart="3.13" from="C7B7" to="J1J10"/>
    <trip id="65" depart="3.17" from="C7B7" to="J8J9"/>
    <trip id="66" depart="3.20" from="E2F2" to="I2J2"/>
    <trip id="67" depart="3.23" from="B6C6" to="I10H10"/>
    <trip id="68" depart="3.27" from="E5E6" to="C8C9"/>
    <trip id="69" depart="3.30" from="H1G1" to="F8G8"/>
    <trip id="70" depart="3.33" from="F4G4" to="K6K5"/>
    <trip id="71" depart="3.37" from="F1F2" to="B4B3"/>
    <trip id="72" depart="3.40" from="E7F7" to="I4I5"/>
    <trip id="73" depart="3.43" from="K10K1" to="D2C2"/>
    <trip id="74" depart="3.47" from="G2G3" to="K1J1"/>
    <trip id="75" depart="3.50" from="B7B8" to="F5E5"/>
    <trip id="76" depart="3.53" from="H3I3" to="B4C4"/>
    <trip id="77" depart="3.57" from="D10D9" to="G10G1"/>
    <trip id="78" depart="3.60" from="F1F10" to="J8J7"/>
    <trip id="79" depart="3.63" from="H4H3" to="E2E1"/>
    <trip id="80" depart="3.67" from="K10J10" to="I1I2"/>
    <trip id="81" depart="3.70" from="C5D5" to="F9G9"/>
    <trip id="82" depart="3.73" from="B1C1" to="J7I7"/>
    <trip id="83" depart="3.77" from="D2D3" to="B4C4"/>
    <trip id="84" depart="3.80" from="H2H3" to="K2K1"/>
    <trip id="85" depart="3.83" from="G5G6" to="J3J4"/>
    <trip id="86" depart="3.87" from="C4B4" to="I5H5"/>
    <trip id="87" depart="3.90" from="J6I6" to="I1H1"/>
    <trip id="88" depart="3.93" from="K9J9" to="K1K10"/>
    <trip id="89" depart="3.97" from="H5I5" to="F3F4"/>
    <trip id="90" depart="4.00" from="F3F4" to="I6H6"/>
    <trip id="91" depart="4.03" from="J3J2" to="E9E8"/>
    <trip id="92" depart="4.07" from="D10C10" to="I4J4"/>
    <trip id="93" depart="4.10" from="J4I4" to="J6J5"/>
    <trip id="94" depart="4.13" from="J6K6" to="I1I10"/>
    <trip id="95" depart="4.17" from="K8K9" to="I6I7"/>
    <trip id="96" depart="4.20" from="G5G6" to="K6K7"/>
    <trip id="97" depart="4.23" from="B5C5" to="H10H9"/>
    <trip id="98" depart="4.27" from="D8D9" to="J1K1"/>
    <trip id="99" depart="4.30" from="F2G2" to="G1H1"/>
    <trip id="100" depart="4.33" from="E7E8" to="J8I8"/>
    <trip id="101" depart="4.37" from="J7J6" to="C7B7"/>
    <trip id="102" depart="4.40" from="J2I2" to="K8J8"/>
    <trip id="103" depart="4.43" from="E6E5" to="E8E7"/>
    <trip id="104" depart="4.47" from="C1D1" to="H9H10"/>
    <trip id="105" depart="4.50" from="F8G8" to="H2I2"/>
    <trip id="106" depart="4.53" from="G5F5" to="E2E3"/>
    <trip id="107" depart="4.57" from="C7C6" to="J7J8"/>
    <trip id="108" depart="4.60" from="K8J8" to="C3C4"/>
    <trip id="109" depart="4.63" from="J7K7" to="F9F10"/>
    <trip id="110" depart="4.67" from="G4G3" to="E1D1"/>
    <trip id="111" depart="4.70" from="I2I3" to="J6I6"/>
    <trip id="112" depart="4.73" from="J5I5" to="K9K10"/>
    <trip id="113" depart="4.77" from="C1D1" to="B2B3"/>
    <trip id="114" depart="4.80" from="F6G6" to="C4B4"/>
    <trip id="115" depart="4.83" from="D5E5" to="E2E1"/>
    <trip id="116" depart="4.87" from="G10G9" to="H9G9"/>
    <trip id="117" depart="4.90" from="H5H6" to="B2B1"/>
    <trip id="118" depart="4.93" from="F10F1" to="F5F4"/>
    <trip id="119" depart="4.97" from="B5B4" to="B8B7"/>
    <trip id="120" depart="5.00" from="C6C7" to="E2F2"/>
    <trip id="121" depart="5.03" from="F8F7" to="K6K5"/>
    <trip id="122" depart="5.07" from="E5F5" to="E8E9"/>
    <trip id="123" depart="5.10" from="I2I1" to="H1H2"/>
    <trip id="124" depart="5.13" from="C4C5" to="K3K4"/>
    <trip id="125" depart="5.17" from="E2E3" to="C10D10"/>
    <trip id="126" depart="5.20" from="H6I6" to="H1H10"/>
    <trip id="127" depart="5.23" from="K5J5" to="B7B6"/>
    <trip id="128" depart="5.27" from="B1C1" to="J6J5"/>
    <trip id="129" depart="5.30" from="D5E5" to="K1K2"/>
    <trip id="130" depart="5.33" from="H7H8" to="F6F7"/>
    <trip id="131" depart="5.37" from="I1I10" to="B4B5"/>
    <trip id="132" depart="5.40" from="I4J4" to="J6J5"/>
    <trip id="133" depart="5.43" from="J9J10" to="C7B7"/>
    <trip id="134" depart="5.47" from="D2D3" to="H10H1"/>
    <trip id="135" depart="5.50" from="C9C10" to="F5G5"/>
    <trip id="136" depart="5.53" from="G3G2" to="G4G5"/>
    <trip id="137" depart="5.57" from="D8D7" to="J6I6"/>
    <trip id="138" depart="5.60" from="B5C5" to="J1J10"/>
    <trip id="139" depart="5.63" from="E9F9" to="C1C2"/>
    <trip id="140" depart="5.67" from="D3D4" to="C8D8"/>
    <trip id="141" depart="5.70" from="D6D5" to="D1E1"/>
    <trip id="142" depart="5.73" from="J10J9" to="E10D10"/>
    <trip id="143" depart="5.77" from="K1J1" to="E5E6"/>
    <trip id="144" depart="5.80" from="I4J4" to="F2F3"/>
    <trip id="145" depart="5.83" from="K3K4" to="E3E4"/>
    <trip id="146" depart="5.87" from="E10E1" to="F9G9"/>
    <trip id="147" depart="5.90" from="E1E10" to="C4B4"/>
    <trip id="148" depart="5.93" from="E9D9" to="J7J6"/>
    <trip id="149" depart="5.97" from="C5D5" to="D1D2"/>
    <trip id="150" depart="6.00" from="G1G10" to="F10F9"/>
    <trip id="151" depart="6.03" from="K5K6" to="J8K8"/>
    <trip id="152" depart="6.07" from="E2F2" to="B6C6"/>
    <trip id="153" depart="6.10" from="F3F2" to="E5E6"/>
    <trip id="154" depart="6.13" from="B3B4" to="F6G6"/>
    <trip id="155" depart="6.17" from="E9E10" to="J4K4"/>
    <trip id="156" depart="6.20" from="C7C6" to="D7C7"/>
    <trip id="157" depart="6.23" from="G10G9" to="K9K8"/>
    <trip id="158" depart="6.27" from="G10H10" to="F10F9"/>
    <trip id="159" depart="6.30" from="E7D7" to="B3B2"/>
    <trip id="160" depart="6.33" from="J3K3" to="K10J10"/>
    <trip id="161" depart="6.37" from="E2F2" to="C2C1"/>
    <trip id="162" depart="6.40" from="J4K4" to="D8D7"/>
    <trip id="163" depart="6.43" from="D7D8" to="F1G1"/>
    <trip id="164" depart="6.47" from="D6C6" to="I5J5"/>
    <trip id="165" depart="6.50" from="I10I9" to="H2I2"/>
    <trip id="166" depart="6.53" from="D8C8" to="I3I4"/>
    <trip id="167" depart="6.57" from="H9I9" to="H8G8"/>
    <trip id="168" depart="6.60" from="B7C7" to="J9I9"/>
    <trip id="169" depart="6.63" from="I5I4" to="H1I1"/>
    <trip id="170" depart="6.67" from="H2G2" to="E2D2"/>
    <trip id="171" depart="6.70" from="H7G7" to="H10I10"/>
    <trip id="172" depart="6.73" from="C7C6" to="F8G8"/>
    <trip id="173" depart="6.77" from="H10H1" to="H1G1"/>
    <trip id="174" depart="6.80" from="C1B1" to="B3B4"/>
    <trip id="175" depart="6.83" from="G8H8" to="C5C4"/>
    <trip id="176" depart="6.87" from="B7C7" to="K1K10"/>
    <trip id="177" depart="6.90" from="K10K1" to="H4I4"/>
    <trip id="178" depart="6.93" from="I5J5" to="E8E9"/>
    <trip id="179" depart="6.97" from="H8H7" to="F8F7"/>
    <trip id="180" depart="7.00" from="F9G9" to="H9G9"/>
    <trip id="181" depart="7.03" from="C9D9" to="E5E6"/>
    <trip id="182" depart="7.07" from="K7K6" to="D1D10"/>
    <trip id="183" depart="7.10" from="J4J5" to="B6B5"/>
    <trip id="184" depart="7.13" from="G7G6" to="I5I4"/>
    <trip id="185" depart="7.17" from="F5F4" to="B3C3"/>
    <trip id="186" depart="7.20" from="F4E4" to="K4K3"/>
    <trip id="187" depart="7.23" from="J8J7" to="K8J8"/>
    <trip id="188" depart="7.27" from="C10C1" to="H10I10"/>
    <trip id="189" depart="7.30" from="J10J9" to="C9C8"/>
    <trip id="190" depart="7.33" from="G9H9" to="J1J10"/>
    <trip id="191" depart="7.37" from="F6G6" to="I5I6"/>
    <trip id="192" depart="7.40" from="J3J4" to="D1D10"/>
    <trip id="193" depart="7.43" from="H4G4" to="I9I8"/>
    <trip id="194" depart="7.47" from="H9G9" to="F10G10"/>
    <trip id="195" depart="7.50" from="K3J3" to="D3E3"/>
    <trip id="196" depart="7.53" from="J9J10" to="J2J3"/>
    <trip id="197" depart="7.57" from="B3C3" to="G9G8"/>
    <trip id="198" depart="7.60" from="F2E2" to="I8I9"/>
    <trip id="199" depart="7.63" from="K6K5" to="C9B9"/>
    <trip id="200" depart="7.67" from="C9C8" to="F2F1"/>
    <trip id="201" depart="7.70" from="F9F8" to="I7J7"/>
    <trip id="202" depart="7.73" from="C9C10" to="I5H5"/>
    <trip id="203" depart="7.77" from="H9I9" to="F6F7"/>
    <trip id="204" depart="7.80" from="J2I2" to="K8K9"/>
    <trip id="205" depart="7.83" from="B7B6" to="K2J2"/>
    <trip id="206" depart="7.87" from="I3I2" to="E9F9"/>
    <trip id="207" depart="7.90" from="I4I5" to="H5H4"/>
    <trip id="208" depart="7.93" from="F8G8" to="I10I1"/>
    <trip id="209" depart="7.97" from="H2H1" to="E8E7"/>
    <trip id="210" depart="8.00" from="C7B7" to="D8C8"/>
    <trip id="211" depart="8.03" from="K1K2" to="E10D10"/>
    <trip id="212" depart="8.07" from="K2K1" to="K3K4"/>
    <trip id="213" depart="8.10" from="I3I4" to="C9D9"/>
    <trip id="214" depart="8.13" from="B10C10" to="H4H5"/>
    <trip id="215" depart="8.17" from="G10G1" to="H6G6"/>
    <trip id="216" depart="8.20" from="E5E4" to="J6K6"/>
    <trip id="217" depart="8.23" from="I10H10" to="J6K6"/>
    <trip id="218" depart="8.27" from="K4K3" to="J10J9"/>
    <trip id="219" depart="8.30" from="J6J5" to="D2D1"/>
    <trip id="220" depart="8.33" from="G1G10" to="I4I3"/>
    <trip id="221" depart="8.37" from="G10F10" to="K7K6"/>
    <trip id="222" depart="8.40" from="E3E2" to="E1F1"/>
    <trip id="223" depart="8.43" from="K9K8" to="H6G6"/>
    <trip id="224" depart="8.47" from="F7G7" to="F9F10"/>
    <trip id="225" depart="8.50" from="F4G4" to="H8H7"/>
    <trip id="226" depart="8.53" from="H5I5" to="C5C6"/>
    <trip id="227" depart="8.57" from="B9B10" to="G8G7"/>
    <trip id="228" depart="8.60" from="E8D8" to="D10D9"/>
    <trip id="229" depart="8.63" from="J4I4" to="E3E2"/>
    <trip id="230" depart="8.67" from="F2G2" to="B10C10"/>
    <trip id="231" depart="8.70" from="I4I5" to="F1F2"/>
    <trip id="232" depart="8.73" from="J1J2" to="I5I6"/>
    <trip id="233" depart="8.77" from="E9E10" to="F3F4"/>
    <trip id="234" depart="8.80" from="J5J4" to="H7G7"/>
    <trip id="235" depart="8.83" from="G1H1" to="B5B4"/>
    <trip id="236" depart="8.87" from="G3G2" to="E8D8"/>
    <trip id="237" depart="8.90" from="H4H3" to="H6G6"/>
    <trip id="238" depart="8.93" from="E2E3" to="F2F1"/>
    <trip id="239" depart="8.97" from="G2F2" to="F3G3"/>
    <trip id="240" depart="9.00" from="F1G1" to="B10C10"/>
    <trip id="241" depart="9.03" from="E3E2" to="I10H10"/>
    <trip id="242" depart="9.07" from="H8I8" to="F2G2"/>
    <trip id="243" depart="9.10" from="J9J10" to="C8D8"/>
    <trip id="244" depart="9.13" from="I6J6" to="B4C4"/>
    <trip id="245" depart="9.17" from="C7B7" to="K4K5"/>
    <trip id="246" depart="9.20" from="I7I8" to="B3B4"/>
    <trip id="247" depart="9.23" from="E9F9" to="F6E6"/>
    <trip id="248" depart="9.27" from="E8D8" to="D7E7"/>
    <trip id="249" depart="9.30" from="D2D3" to="E10E1"/>
    <trip id="250" depart="9.33" from="J4K4" to="H5H4"/>
    <trip id="251" depart="9.37" from="H6G6" to="F6F7"/>
    <trip id="252" depart="9.40" from="C5B5" to="E6D6"/>
    <trip id="253" depart="9.43" from="E3F3" to="H2I2"/>
    <trip id="254" depart="9.47" from="E2D2" to="C2D2"/>
    <trip id="255" depart="9.50" from="G2F2" to="F2E2"/>
    <trip id="256" depart="9.53" from="F7E7" to="F3F4"/>
    <trip id="257" depart="9.57" from="H4I4" to="G7F7"/>
    <trip id="258" depart="9.60" from="H3I3" to="B6B7"/>
    <trip id="259" depart="9.63" from="J4I4" to="J6I6"/>
    <trip id="260" depart="9.67" from="F2E2" to="C6B6"/>
    <trip id="261" depart="9.70" from="I8H8" to="C7C8"/>
    <trip id="262" depart="9.73" from="J4J5" to="C6C5"/>
    <trip id="263" depart="9.77" from="D5D4" to="K2K3"/>
    <trip id="264" depart="9.80" from="F8F7" to="D9D8"/>
    <trip id="265" depart="9.83" from="G2G3" to="C4D4"/>
    <trip id="266" depart="9.87" from="D6C6" to="F9G9"/>
    <trip id="267" depart="9.90" from="E10D10" to="B8B7"/>
    <trip id="268" depart="9.93" from="G8H8" to="C10C1"/>
    <trip id="269" depart="9.97" from="D1D10" to="F2F3"/>
    <trip id="270" depart="10.00" from="K10K9" to="E5E4"/>
    <trip id="271" depart="10.03" from="D2D3" to="I2I3"/>
    <trip id="272" depart="10.07" from="J3K3" to="J3I3"/>
    <trip id="273" depart="10.10" from="D7E7" to="B4C4"/>
    <trip id="274" depart="10.13" from="I10H10" to="C8B8"/>
    <trip id="275" depart="10.17" from="I3J3" to="F4E4"/>
    <trip id="276" depart="10.20" from="B5C5" to="C1B1"/>
    <trip id="277" depart="10.23" from="H9I9" to="F2F1"/>
    <trip id="278" depart="10.27" from="D5D4" to="B4B5"/>
    <trip id="279" depart="10.30" from="I3I2" to="C1D1"/>
    <trip id="280" depart="10.33" from="D8C8" to="J7I7"/>
    <trip id="281" depart="10.37" from="H10H9" to="B3B2"/>
    <trip id="282" depart="10.40" from="I2H2" to="J7J8"/>
    <trip id="283" depart="10.43" from="C7B7" to="B2C2"/>
    <trip id="284" depart="10.47" from="F8G8" to="G10H10"/>
    <trip id="285" depart="10.50" from="G6G5" to="F10F1"/>
    <trip id="286" depart="10.53" from="B9B8" to="J3I3"/>
    <trip id="287" depart="10.57" from="E4E3" to="D5E5"/>
    <trip id="288" depart="10.60" from="I2I1" to="B10B9"/>
    <trip id="289" depart="10.63" from="G3G2" to="H9H10"/>
    <trip id="290" depart="10.67" from="K6K7" to="K10K9"/>
    <trip id="291" depart="10.70" from="C10C1" to="B7B6"/>
    <trip id="292" depart="10.73" from="D2C2" to="C9B9"/>
    <trip id="293" depart="10.77" from="D5D6" to="E2F2"/>
    <trip id="294" depart="10.80" from="J3J2" to="H5H6"/>
    <trip id="295" depart="10.83" from="E7E6" to="E4E5"/>
    <trip id="296" depart="10.87" from="K1K2" to="I5I4"/>
    <trip id="297" depart="10.90" from="D2E2" to="E1D1"/>
    <trip id="298" depart="10.93" from="C7D7" to="I1I10"/>
    <trip id="299" depart="10.97" from="D8E8" to="K4K5"/>
    <trip id="300" depart="11.00" from="H5G5" to="D6D5"/>
    <trip id="301" depart="11.03" from="I2H2" to="C1B1"/>
    <trip id="302" depart="11.07" from="G9F9" to="G5F5"/>
    <trip id="303" depart="11.10" from="F1G1" to="I2H2"/>
    <trip id="304" depart="11.13" from="E1D1" to="G10G9"/>
    <trip id="305" depart="11.17" from="K3K2" to="I1I2"/>
    <trip id="306" depart="11.20" from="J2I2" to="J1K1"/>
    <trip id="307" depart="11.23" from="D5D6" to="I5J5"/>
    <trip id="308" depart="11.27" from="I2I3" to="I9I8"/>
    <trip id="309" depart="11.30" from="H3H2" to="J1J2"/>
    <trip id="310" depart="11.33" from="H6H5" to="H9I9"/>
    <trip id="311" depart="11.37" from="K4K3" to="H6I6"/>
    <trip id="312" depart="11.40" from="I4H4" to="D10D1"/>
    <trip id="313" depart="11.43" from="B2B1" to="D1D2"/>
    <trip id="314" depart="11.47" from="D2E2" to="H4H3"/>
    <trip id="315" depart="11.50" from="C8C7" to="I4H4"/>
    <trip id="316" depart="11.53" from="E10E1" to="E8F8"/>
    <trip id="317" depart="11.57" from="C7C6" to="I2J2"/>
    <trip id="318" depart="11.60" from="K5J5" to="C7C8"/>
    <trip id="319" depart="11.63" from="K6K5" to="K10K9"/>
    <trip id="320" depart="11.67" from="B8B9" to="E6E7"/>
    <trip id="321" depart="11.70" from="G8F8" to="G4F4"/>
    <trip id="322" depart="11.73" from="G1G2" to="D4C4"/>
    <trip id="323" depart="11.77" from="F10E10" to="H7H8"/>
    <trip id="324" depart="11.80" from="H9G9" to="I3I4"/>
    <trip id="325" depart="11.83" from="D9E9" to="F9G9"/>
    <trip id="326" depart="11.87" from="B9B10" to="F2G2"/>
    <trip id="327" depart="11.90" from="C6C7" to="H9H10"/>
    <trip id="328" depart="11.93" from="F5F6" to="I4J4"/>
    <trip id="329" depart="11.97" from="D6D5" to="J1K1"/>
    <trip id="330" depart="12.00" from="B3B2" to="I9H9"/>
    <trip id="331" depart="12.03" from="I7I6" to="G3G4"/>
    <trip id="332" depart="12.07" from="C2C3" to="J5J6"/>
    <trip id="333" depart="12.10" from="C3C2" to="G6G7"/>
    <trip id="334" depart="12.13" from="G6F6" to="B9C9"/>
    <trip id="335" depart="12.17" from="G10G1" to="K1K2"/>
    <trip id="336" depart="12.20" from="I3H3" to="F5F6"/>
    <trip id="337" depart="12.23" from="E10E9" to="E10E1"/>
    <trip id="338" depart="12.27" from="I7J7" to="F3F4"/>
    <trip id="339" depart="12.30" from="G6H6" to="H7I7"/>
    <trip id="340" depart="12.33" from="E8E7" to="J5K5"/>
    <trip id="341" depart="12.37" from="F9F10" to="C4D4"/>
    <trip id="342" depart="12.40" from="C3C2" to="J6I6"/>
    <trip id="343" depart="12.43" from="I2J2" to="I4J4"/>
    <trip id="344" depart="12.47" from="K9K10" to="J5I5"/>
    <trip id="345" depart="12.50" from="D1C1" to="E6E5"/>
    <trip id="346" depart="12.53" from="D6D7" to="D1D10"/>
    <trip id="347" depart="12.57" from="D6D7" to="J10J9"/>
    <trip id="348" depart="12.60" from="G6G5" to="H5I5"/>
    <trip id="349" depart="12.63" from="H6H5" to="E5E6"/>
    <trip id="350" depart="12.67" from="J4J3" to="G7F7"/>
    <trip id="351" depart="12.70" from="I9I8" to="B4B5"/>
    <trip id="352" depart="12.73" from="G1G2" to="J5J6"/>
    <trip id="353" depart="12.77" from="H6G6" to="F2F3"/>
    <trip id="354" depart="12.80" from="H8H9" to="E5F5"/>
    <trip id="355" depart="12.83" from="H6H7" to="H5I5"/>
    <trip id="356" depart="12.87" from="C5B5" to="H3H4"/>
    <trip id="357" depart="12.90" from="F4G4" to="F8F9"/>
    <trip id="358" depart="12.93" from="F4E4" to="J10J9"/>
    <trip id="359" depart="12.97" from="B4C4" to="I10I9"/>
    <trip id="360" depart="13.00" from="B4C4" to="J7K7"/>
    <trip id="361" depart="13.03" from="K3K4" to="E5E6"/>
    <trip id="362" depart="13.07" from="E5F5" to="C1D1"/>
    <trip id="363" depart="13.10" from="H2H3" to="C9C8"/>
    <trip id="364" depart="13.13" from="B7B8" to="H10I10"/>
    <trip id="365" depart="13.17" from="H4I4" to="D9E9"/>
    <trip id="366" depart="13.20" from="D4E4" to="C6B6"/>
    <trip id="367" depart="13.23" from="K6K5" to="B3C3"/>
    <trip id="368" depart="13.27" from="D6E6" to="F5F6"/>
    <trip id="369" depart="13.30" from="J7I7" to="J2I2"/>
    <trip id="370" depart="13.33" from="D10D9" to="F2F3"/>
    <trip id="371" depart="13.37" from="E6F6" to="B10C10"/>
    <trip id="372" depart="13.40" from="E7E8" to="B9B10"/>
    <trip id="373" depart="13.43" from="H9H8" to="E10D10"/>
    <trip id="374" depart="13.47" from="I1I10" to="G3G2"/>
    <trip id="375" depart="13.50" from="K8K7" to="B3B2"/>
    <trip id="376" depart="13.53" from="D1E1" to="G7F7"/>
    <trip id="377" depart="13.57" from="I6I7" to="E2E1"/>
    <trip id="378" depart="13.60" from="D9E9" to="K8K7"/>
    <trip id="379" depart="13.63" from="D4E4" to="J5I5"/>
    <trip id="380" depart="13.67" from="G10G9" to="G8G7"/>
    <trip id="381" depart="13.70" from="J8K8" to="J7J6"/>
    <trip id="382" depart="13.73" from="C6C5" to="B1B2"/>
    <trip id="383" depart="13.77" from="H1I1" to="F7F8"/>
    <trip id="384" depart="13.80" from="G8G9" to="C8C7"/>
    <trip id="385" depart="13.83" from="I3H3" to="G7G6"/>
    <trip id="386" depart="13.87" from="G3F3" to="I2I1"/>
    <trip id="387" depart="13.90" from="F10F1" to="C8C7"/>
    <trip id="388" depart="13.93" from="B1B10" to="K7K6"/>
    <trip id="389" depart="13.97" from="C5D5" to="G4F4"/>
    <trip id="390" depart="14.00" from="F9F10" to="J7K7"/>
    <trip id="391" depart="14.03" from="F7G7" to="B2B3"/>
    <trip id="392" depart="14.07" from="C10C1" to="F8F7"/>
    <trip id="393" depart="14.10" from="C10C1" to="E3E4"/>
    <trip id="394" depart="14.13" from="F9G9" to="D5D6"/>
    <trip id="395" depart="14.17" from="F4F3" to="C4C3"/>
    <trip id="396" depart="14.20" from="E9D9" to="H10H1"/>
    <trip id="397" depart="14.23" from="B3B2" to="G2G3"/>
    <trip id="398" depart="14.27" from="I8I7" to="J2K2"/>
    <trip id="399" depart="14.30" from="F4F5" to="B2C2"/>
    <trip id="400" depart="14.33" from="E9E10" to="H8I8"/>
    <trip id="401" depart="14.37" from="D5D4" to="J2I2"/>
    <trip id="402" depart="14.40" from="I8J8" to="F4F3"/>
    <trip id="403" depart="14.43" from="J4I4" to="K2K3"/>
    <trip id="404" depart="14.47" from="J1J10" to="I10J10"/>
    <trip id="405" depart="14.50" from="E8E7" to="J8J9"/>
    <trip id="406" depart="14.53" from="J9J8" to="J4J5"/>
    <trip id="407" depart="14.57" from="I7H7" to="G5G6"/>
    <trip id="408" depart="14.60" from="F7F8" to="F8F7"/>
    <trip id="409" depart="14.63" from="G8H8" to="D7C7"/>
    <trip id="410" depart="14.67" from="G8F8" to="K9K8"/>
    <trip id="411" depart="14.70" from="H7I7" to="E9F9"/>
    <trip id="412" depart="14.73" from="H9I9" to="D9C9"/>
    <trip id="413" depart="14.77" from="C10D10" to="E10E9"/>
    <trip id="414" depart="14.80" from="D9E9" to="F7F8"/>
    <trip id="415" depart="14.83" from="D10D1" to="E5F5"/>
    <trip id="416" depart="14.87" from="H9I9" to="K3K2"/>
    <trip id="417" depart="14.90" from="G3G4" to="K6K7"/>
    <trip id="418" depart="14.93" from="K8K7" to="J6K6"/>
    <trip id="419" depart="14.97" from="J7K7" to="J1J2"/>
    <trip id="420" depart="15.00" from="C3B3" to="D10D1"/>
    <trip id="421" depart="15.03" from="F6F5" to="E10E9"/>
    <trip id="422" depart="15.07" from="H6G6" to="D4C4"/>
    <trip id="423" depart="15.10" from="H2I2" to="I8J8"/>
    <trip id="424" depart="15.13" from="I4I5" to="J2K2"/>
    <trip id="425" depart="15.17" from="F7G7" to="G8G7"/>
    <trip id="426" depart="15.20" from="H7H6" to="D2C2"/>
    <trip id="427" depart="15.23" from="F1F2" to="C4C3"/>
    <trip id="428" depart="15.27" from="E1F1" to="J10I10"/>
    <trip id="429" depart="15.30" from="D1E1" to="F8F9"/>
    <trip id="430" depart="15.33" from="G5G6" to="E2E1"/>
    <trip id="431" depart="15.37" from="F7G7" to="E5E4"/>
    <trip id="432" depart="15.40" from="F3F2" to="K2J2"/>
    <trip id="433" depart="15.43" from="C10C9" to="G1G2"/>
    <trip id="434" depart="15.47" from="H8H7" to="F10G10"/>
    <trip id="435" depart="15.50" from="C4C5" to="D10D9"/>
    <trip id="436" depart="15.53" from="J4J5" to="H2H1"/>
    <trip id="437" depart="15.57" from="B2B1" to="I7H7"/>
    <trip id="438" depart="15.60" from="E7E6" to="I1J1"/>
    <trip id="439" depart="15.63" from="E9D9" to="F3E3"/>
    <trip id="440" depart="15.67" from="I7H7" to="E3F3"/>
    <trip id="441" depart="15.70" from="B10C10" to="J1J2"/>
    <trip id="442" depart="15.73" from="J2J1" to="H1H10"/>
    <trip id="443" depart="15.77" from="F2F3" to="C10B10"/>
    <trip id="444" depart="15.80" from="D6D5" to="B3B4"/>
    <trip id="445" depart="15.83" from="K5K4" to="E1D1"/>
    <trip id="446" depart="15.87" from="I5H5" to="I3I2"/>
    <trip id="447" depart="15.90" from="C8D8" to="K3K2"/>
    <trip id="448" depart="15.93" from="F9G9" to="E1E10"/>
    <trip id="449" depart="15.97" from="E4E3" to="C2C1"/>
    <trip id="450" depart="16.00" from="I4I5" to="K9K8"/>
    <trip id="451" depart="16.03" from="K9K10" to="G10G9"/>
    <trip id="452" depart="16.07" from="K7K8" to="F7F6"/>
    <trip id="453" depart="16.10" from="F1E1" to="B10B1"/>
    <trip id="454" depart="16.13" from="F10F9" to="E5D5"/>
    <trip id="455" depart="16.17" from="E3F3" to="B1B2"/>
    <trip id="456" depart="16.20" from="F6F5" to="C7C8"/>
    <trip id="457" depart="16.23" from="C7C6" to="G3G4"/>
    <trip id="458" depart="16.27" from="F4F5" to="G1H1"/>
    <trip id="459" depart="16.30" from="D3D2" to="E6D6"/>
    <trip id="460" depart="16.33" from="E4E5" to="H9I9"/>
    <trip id="461" depart="16.37" from="K10J10" to="E7D7"/>
    <trip id="462" depart="16.40" from="C8B8" to="H8H7"/>
    <trip id="463" depart="16.43" from="E5F5" to="C3B3"/>
    <trip id="464" depart="16.47" from="E8E9" to="D4E4"/>
    <trip id="465" depart="16.50" from="D10C10" to="I6I5"/>
    <trip id="466" depart="16.53" from="J9K9" to="G3G4"/>
    <trip id="467" depart="16.57" from="F8F9" to="H10I10"/>
    <trip id="468" depart="16.60" from="B3B2" to="F10G10"/>
    <trip id="469" depart="16.63" from="E10E1" to="D9C9"/>
    <trip id="470" depart="16.67" from="C8D8" to="G10H10"/>
    <trip id="471" depart="16.70" from="D5C5" to="F2E2"/>
    <trip id="472" depart="16.73" from="H5I5" to="I10I1"/>
    <trip id="473" depart="16.77" from="C3D3" to="D5C5"/>
    <trip id="474" depart="16.80" from="C2C3" to="I3I4"/>
    <trip id="475" depart="16.83" from="C5C4" to="E2E1"/>
    <trip id="476" depart="16.87" from="D4C4" to="J7J8"/>
    <trip id="477" depart="16.90" from="G2F2" to="D8E8"/>
    <trip id="478" depart="16.93" from="E2F2" to="I5I6"/>
    <trip id="479" depart="16.97" from="G8H8" to="C4D4"/>
    <trip id="480" depart="17.00" from="I8J8" to="F8F9"/>
    <trip id="481" depart="17.03" from="I3I2" to="B5B4"/>
    <trip id="482" depart="17.07" from="K5J5" to="E9E8"/>
    <trip id="483" depart="17.10" from="C5C4" to="I3H3"/>
    <trip id="484" depart="17.13" from="F10G10" to="G6F6"/>
    <trip id="485" depart="17.17" from="I5I4" to="F5G5"/>
    <trip id="486" depart="17.20" from="F9F8" to="C7D7"/>
    <trip id="487" depart="17.23" from="C1B1" to="J9I9"/>
    <trip id="488" depart="17.27" from="I2J2" to="G7G6"/>
    <trip id="489" depart="17.30" from="I3H3" to="K9J9"/>
    <trip id="490" depart="17.33" from="C10C1" to="C1B1"/>
    <trip id="491" depart="17.37" from="H9G9" to="K2K3"/>
    <trip id="492" depart="17.40" from="D5D4" to="I4H4"/>
    <trip id="493" depart="17.43" from="E4E5" to="C7C6"/>
    <trip id="494" depart="17.47" from="D4C4" to="C5D5"/>
    <trip id="495" depart="17.50" from="E7E8" to="E5E6"/>
    <trip id="496" depart="17.53" from="C7C6" to="H8H7"/>
    <trip id="497" depart="17.57" from="K10J10" to="B1B2"/>
    <trip id="498" depart="17.60" from="E10E1" to="E8E9"/>
    <trip id="499" depart="17.63" from="I9H9" to="I4J4"/>
    <trip id="500" depart="17.67" from="E4D4" to="F3F4"/>
    <trip id="501" depart="17.70" from="F7F8" to="B5B6"/>
    <trip id="502" depart="17.73" from="J6J5" to="I4H4"/>
    <trip id="503" depart="17.77" from="G7G8" to="G5G4"/>
    <trip id="504" depart="17.80" from="J4I4" to="D4C4"/>