<?xml version="1.0" encoding="UTF-8"?>

<!-- generated on 05/18/19 20:24:14 by Eclipse SUMO duarouter Version 1.1.0
<configuration xmlns:xsi="http://www.w3.org/2001/XMLSchema-instance" xsi:noNamespaceSchemaLocation="http://sumo.dlr.de/xsd/duarouterConfiguration.xsd">

    <input>
        <net-file value="net-1net.net.xml"/>
        <route-files value="trips.trips.xml"/>
    </input>

    <output>
        <output-file value="output-net-1net/./rou250.rou.xml"/>
        <alternatives-output value="output-net-1net/./rou250.rou.alt.xml"/>
    </output>

    <time>
        <begin value="1.0"/>
        <end value="101.0"/>
    </time>

    <report>
        <no-warnings value="true"/>
        <ignore-errors value="true"/>
        <no-step-log value="true"/>
    </report>

</configuration>
-->

<routes xmlns:xsi="http://www.w3.org/2001/XMLSchema-instance" xsi:noNamespaceSchemaLocation="http://sumo.dlr.de/xsd/routes_file.xsd">
    <vehicle id="0" depart="1.00">
        <route edges="50 51 21 55 64"/>
    </vehicle>
    <vehicle id="1" depart="1.40">
        <route edges="51 21 55 3"/>
    </vehicle>
    <vehicle id="2" depart="1.80">
        <route edges="41 40 34 29 46"/>
    </vehicle>
    <vehicle id="3" depart="2.20">
        <route edges="60 27 6 14 3"/>
    </vehicle>
    <vehicle id="4" depart="2.60">
        <route edges="39 12 6 58 20 48"/>
    </vehicle>
    <vehicle id="5" depart="3.00">
        <route edges="13 62 68 5 4"/>
    </vehicle>
    <vehicle id="6" depart="3.40">
        <route edges="64 7 13 32 39"/>
    </vehicle>
    <vehicle id="7" depart="3.80">
        <route edges="32 40 52 45"/>
    </vehicle>
    <vehicle id="8" depart="4.20">
        <route edges="6 7 13 62 63"/>
    </vehicle>
    <vehicle id="9" depart="4.60">
        <route edges="66 39 32"/>
    </vehicle>
    <vehicle id="10" depart="5.00">
        <route edges="13"/>
    </vehicle>
    <vehicle id="11" depart="5.40">
        <route edges="66 67 63"/>
    </vehicle>
    <vehicle id="12" depart="5.80">
        <route edges="66 40 52 53"/>
    </vehicle>
    <vehicle id="13" depart="6.20">
        <route edges="20 21"/>
    </vehicle>
    <vehicle id="14" depart="6.60">
        <route edges="17 43 63 12 6 14 36 37"/>
    </vehicle>
    <vehicle id="15" depart="7.00">
        <route edges="gneE6 62"/>
    </vehicle>
    <vehicle id="16" depart="7.40">
        <route edges="23 22 53 41 67 68"/>
    </vehicle>
    <vehicle id="17" depart="7.80">
        <route edges="53 41 39"/>
    </vehicle>
    <vehicle id="18" depart="8.20">
        <route edges="51 21"/>
    </vehicle>
    <vehicle id="19" depart="8.60">
        <route edges="71 58 20 50 22 45"/>
    </vehicle>
    <vehicle id="20" depart="9.00">
        <route edges="66 40 52 23 51 48 57"/>
    </vehicle>
    <vehicle id="21" depart="9.40">
        <route edges="30 57 22 53 41 67"/>
    </vehicle>
    <vehicle id="22" depart="9.80">
        <route edges="23 22 53 41"/>
    </vehicle>
    <vehicle id="23" depart="10.20">
        <route edges="40 41 39 12 6 7"/>
    </vehicle>
    <vehicle id="24" depart="10.60">
        <route edges="14 64 7 13 62 66"/>
    </vehicle>
    <vehicle id="25" depart="11.00">
        <route edges="55 64 7 13 62 68 5 46 47"/>
    </vehicle>
    <vehicle id="26" depart="11.40">
        <route edges="22 53 41"/>
    </vehicle>
    <vehicle id="27" depart="11.80">
        <route edges="34 19 52 23"/>
    </vehicle>
    <vehicle id="28" depart="12.20">
        <route edges="55 36 37"/>
    </vehicle>
    <vehicle id="29" depart="12.60">
        <route edges="47 28 19 52 23 51 48 37"/>
    </vehicle>
    <vehicle id="30" depart="13.00">
        <route edges="50 30"/>
    </vehicle>
    <vehicle id="31" depart="13.40">
        <route edges="4 43 63 12"/>
    </vehicle>
    <vehicle id="32" depart="13.80">
        <route edges="27 13 32 40 52 23"/>
    </vehicle>
    <vehicle id="33" depart="14.20">
        <route edges="27 13 62 68 16 17"/>
    </vehicle>
    <vehicle id="34" depart="14.60">
        <route edges="16 17 43 63 -gneE6"/>
    </vehicle>
    <vehicle id="35" depart="15.00">
        <route edges="17 43 63 12 6 58 71"/>
    </vehicle>
    <vehicle id="36" depart="15.40">
        <route edges="40 41 39 12"/>
    </vehicle>
    <vehicle id="37" depart="15.80">
        <route edges="46 47 4 43 63 12 6 14 36"/>
    </vehicle>
    <vehicle id="38" depart="16.20">
        <route edges="52 53 41 40"/>
    </vehicle>
    <vehicle id="39" depart="16.60">
        <route edges="67 63 12 60"/>
    </vehicle>
    <vehicle id="40" depart="17.00">
        <route edges="20 21 55 3"/>
    </vehicle>
    <vehicle id="41" depart="17.40">
        <route edges="66 39 -gneE6"/>
    </vehicle>
    <vehicle id="42" depart="17.80">
        <route edges="58 71 7 60"/>
    </vehicle>
    <vehicle id="43" depart="18.20">
        <route edges="41 40 34 29 46"/>
    </vehicle>
    <vehicle id="44" depart="18.60">
        <route edges="64 7 60"/>
    </vehicle>
    <vehicle id="45" depart="19.00">
        <route edges="7 6 14 36"/>
    </vehicle>
    <vehicle id="46" depart="19.40">
        <route edges="37 64 7 13 62 68 16"/>
    </vehicle>
    <vehicle id="47" depart="19.80">
        <route edges="16 19 34"/>
    </vehicle>
    <vehicle id="48" depart="20.20">
        <route edges="13 27 6 58 71"/>
    </vehicle>
    <vehicle id="49" depart="20.60">
        <route edges="12 6 58 71"/>
    </vehicle>
    <vehicle id="50" depart="21.00">
        <route edges="45 10 23 51 48 37"/>
    </vehicle>
    <vehicle id="51" depart="21.40">
        <route edges="53 41 39 12 6 14"/>
    </vehicle>
    <vehicle id="52" depart="21.80">
        <route edges="50 22 53 34"/>
    </vehicle>
    <vehicle id="53" depart="22.20">
        <route edges="12 6 58 20 48"/>
    </vehicle>
    <vehicle id="54" depart="22.60">
        <route edges="22 53 41 39 12 6"/>
    </vehicle>
    <vehicle id="55" depart="23.00">
        <route edges="16 17"/>
    </vehicle>
    <vehicle id="56" depart="23.40">
        <route edges="67 63 12 6 58 55"/>
    </vehicle>
    <vehicle id="57" depart="23.80">
        <route edges="13 27 6 58 20 50"/>
    </vehicle>
    <vehicle id="58" depart="24.20">
        <route edges="37 3 20 50 51"/>
    </vehicle>
    <vehicle id="59" depart="24.60">
        <route edges="22 53 41 67 68"/>
    </vehicle>
    <vehicle id="60" depart="25.00">
        <route edges="71 7 13"/>
    </vehicle>
    <vehicle id="61" depart="25.40">
        <route edges="49 50 22 53 41 40"/>
    </vehicle>
    <vehicle id="62" depart="25.80">
        <route edges="10 45"/>
    </vehicle>
    <vehicle id="63" depart="26.20">
        <route edges="16 29 28"/>
    </vehicle>
    <vehicle id="64" depart="26.60">
        <route edges="60 62 66 40 52 45 10"/>
    </vehicle>
    <vehicle id="65" depart="27.00">
        <route edges="47 4 43 63 62"/>
    </vehicle>
    <vehicle id="66" depart="27.40">
        <route edges="58 20 50 22 53 34 29 28"/>
    </vehicle>
    <vehicle id="67" depart="27.80">
        <route edges="12 6 14 36 37"/>
    </vehicle>
    <vehicle id="68" depart="28.20">
        <route edges="50 51"/>
    </vehicle>
    <vehicle id="69" depart="28.60">
        <route edges="51 50 22 53 34 29 46"/>
    </vehicle>
    <vehicle id="70" depart="29.00">
        <route edges="23 22 53 41 39 -gneE6"/>
    </vehicle>
    <vehicle id="71" depart="29.40">
        <route edges="64 7 13 32 40 34"/>
    </vehicle>
    <vehicle id="72" depart="29.80">
        <route edges="47 4 43 63"/>
    </vehicle>
    <vehicle id="73" depart="30.20">
        <route edges="55 64 7 13 27"/>
    </vehicle>
    <vehicle id="74" depart="30.60">
        <route edges="17 16 19 52"/>
    </vehicle>
    <vehicle id="75" depart="31.00">
        <route edges="39 62 66"/>
    </vehicle>
    <vehicle id="76" depart="31.40">
        <route edges="20 48 37"/>
    </vehicle>
    <vehicle id="77" depart="31.80">
        <route edges="10 53 34 29 28"/>
    </vehicle>
    <vehicle id="78" depart="32.20">
        <route edges="17 43 63 12 6 58"/>
    </vehicle>
    <vehicle id="79" depart="32.60">
        <route edges="6 7 13 32 40 41"/>
    </vehicle>
    <vehicle id="80" depart="33.00">
        <route edges="22 53 34 29 28"/>
    </vehicle>
    <vehicle id="81" depart="33.40">
        <route edges="71 7 13 -gneE6"/>
    </vehicle>
    <vehicle id="82" depart="33.80">
        <route edges="57 22 53 41 39 62"/>
    </vehicle>
    <vehicle id="83" depart="34.20">
        <route edges="48 37 3 20"/>
    </vehicle>
    <vehicle id="84" depart="34.60">
        <route edges="66 40 52 23 51 50"/>
    </vehicle>
    <vehicle id="85" depart="35.00">
        <route edges="57 22 53 41 67 63"/>
    </vehicle>
    <vehicle id="86" depart="35.40">
        <route edges="29 4"/>
    </vehicle>
    <vehicle id="87" depart="35.80">
        <route edges="48 37 64 7 13 62 63"/>
    </vehicle>
    <vehicle id="88" depart="36.20">
        <route edges="64 58"/>
    </vehicle>
    <vehicle id="89" depart="36.60">
        <route edges="20 50 51"/>
    </vehicle>
    <vehicle id="90" depart="37.00">
        <route edges="36 37"/>
    </vehicle>
    <vehicle id="91" depart="37.40">
        <route edges="gneE6 62 66 40 52 23 51"/>
    </vehicle>
    <vehicle id="92" depart="37.80">
        <route edges="-gneE6 13 27 gneE6"/>
    </vehicle>
    <vehicle id="93" depart="38.20">
        <route edges="3 71 7 60"/>
    </vehicle>
    <vehicle id="94" depart="38.60">
        <route edges="37 64 7 13 27"/>
    </vehicle>
    <vehicle id="95" depart="39.00">
        <route edges="23 51 21 71 14"/>
    </vehicle>
    <vehicle id="96" depart="39.40">
        <route edges="37 3"/>
    </vehicle>
    <vehicle id="97" depart="39.80">
        <route edges="21 20"/>
    </vehicle>
    <vehicle id="98" depart="40.20">
        <route edges="51 48"/>
    </vehicle>
    <vehicle id="99" depart="40.60">
        <route edges="21 71 7 13 62"/>
    </vehicle>
    <vehicle id="100" depart="41.00">
        <route edges="60 62 68 5 46"/>
    </vehicle>
    <vehicle id="101" depart="41.40">
        <route edges="62 63 12 6 14 36"/>
    </vehicle>
    <vehicle id="102" depart="41.80">
        <route edges="16 17 43 66"/>
    </vehicle>
    <vehicle id="103" depart="42.20">
        <route edges="47 28 17"/>
    </vehicle>
    <vehicle id="104" depart="42.60">
        <route edges="29 4 43 63 12 13"/>
    </vehicle>
    <vehicle id="105" depart="43.00">
        <route edges="51 50 22 53 34 17 43"/>
    </vehicle>
    <vehicle id="106" depart="43.40">
        <route edges="29 4 43 63 12 6 14"/>
    </vehicle>
    <vehicle id="107" depart="43.80">
        <route edges="41 39 -gneE6"/>
    </vehicle>
    <vehicle id="108" depart="44.20">
        <route edges="-gneE6 13 62 68"/>
    </vehicle>
    <vehicle id="109" depart="44.60">
        <route edges="14 3 20 50 22 23"/>
    </vehicle>
    <vehicle id="110" depart="45.00">
        <route edges="64 14 3"/>
    </vehicle>
    <vehicle id="111" depart="45.40">
        <route edges="3 20 50 22 53 41 39"/>
    </vehicle>
    <vehicle id="112" depart="45.80">
        <route edges="17 16 19 34"/>
    </vehicle>
    <vehicle id="113" depart="46.20">
        <route edges="46 47 28 19 52 23 51 48 57"/>
    </vehicle>
    <vehicle id="114" depart="46.60">
        <route edges="23 22 53 41 39 -gneE6"/>
    </vehicle>
    <vehicle id="115" depart="47.00">
        <route edges="16 17 43 63 32"/>
    </vehicle>
    <vehicle id="116" depart="47.40">
        <route edges="16 29 4"/>
    </vehicle>
    <vehicle id="117" depart="47.80">
        <route edges="29 28 19 52 23 51 48 49"/>
    </vehicle>
    <vehicle id="118" depart="48.20">
        <route edges="20 48 49"/>
    </vehicle>
    <vehicle id="119" depart="48.60">
        <route edges="45 10 23 22"/>
    </vehicle>
    <vehicle id="120" depart="49.00">
        <route edges="20 21"/>
    </vehicle>
    <vehicle id="121" depart="49.40">
        <route edges="-gneE6 6 58 71"/>
    </vehicle>
    <vehicle id="122" depart="49.80">
        <route edges="13 62 68 16 19"/>
    </vehicle>
    <vehicle id="123" depart="50.20">
        <route edges="19 52 23 51 21 55"/>
    </vehicle>
    <vehicle id="124" depart="50.60">
        <route edges="10 53 34 17 43"/>
    </vehicle>
    <vehicle id="125" depart="51.00">
        <route edges="62 63 32"/>
    </vehicle>
    <vehicle id="126" depart="51.40">
        <route edges="63 62 66 40 52 23"/>
    </vehicle>
    <vehicle id="127" depart="51.80">
        <route edges="30 37 3 55"/>
    </vehicle>
    <vehicle id="128" depart="52.20">
        <route edges="34 17 43 63 12 13"/>
    </vehicle>
    <vehicle id="129" depart="52.60">
        <route edges="57 22 53 34 29"/>
    </vehicle>
    <vehicle id="130" depart="53.00">
        <route edges="19 52 23 51 48 49"/>
    </vehicle>
    <vehicle id="131" depart="53.40">
        <route edges="58 71 7 13 27"/>
    </vehicle>
    <vehicle id="132" depart="53.80">
        <route edges="32 40 34 29 4"/>
    </vehicle>
    <vehicle id="133" depart="54.20">
        <route edges="40 52 23"/>
    </vehicle>
    <vehicle id="134" depart="54.60">
        <route edges="22 53 34 29 46"/>
    </vehicle>
    <vehicle id="135" depart="55.00">
        <route edges="41 40 34 17"/>
    </vehicle>
    <vehicle id="136" depart="55.40">
        <route edges="37 64 58"/>
    </vehicle>
    <vehicle id="137" depart="55.80">
        <route edges="63 12 6 58 20 50"/>
    </vehicle>
    <vehicle id="138" depart="56.20">
        <route edges="gneE6 62"/>
    </vehicle>
    <vehicle id="139" depart="56.60">
        <route edges="49 21 71 7 13 62 63"/>
    </vehicle>
    <vehicle id="140" depart="57.00">
        <route edges="17 43 63 12 6 14 36 37"/>
    </vehicle>
    <vehicle id="141" depart="57.40">
        <route edges="64 7 13 62 68 5 46"/>
    </vehicle>
    <vehicle id="142" depart="57.80">
        <route edges="60 27 6 58 20"/>
    </vehicle>
    <vehicle id="143" depart="58.20">
        <route edges="4 43 63 -gneE6"/>
    </vehicle>
    <vehicle id="144" depart="58.60">
        <route edges="19 34"/>
    </vehicle>
    <vehicle id="145" depart="59.00">
        <route edges="20 48 37"/>
    </vehicle>
    <vehicle id="146" depart="59.40">
        <route edges="gneE6 27 6 14 64"/>
    </vehicle>
    <vehicle id="147" depart="59.80">
        <route edges="gneE6 27 6 58"/>
    </vehicle>
    <vehicle id="148" depart="60.20">
        <route edges="5 28 19 41 67"/>
    </vehicle>
    <vehicle id="149" depart="60.60">
        <route edges="28 17 43 63"/>
    </vehicle>
    <vehicle id="150" depart="61.00">
        <route edges="47 4 43 63 12 60"/>
    </vehicle>
    <vehicle id="151" depart="61.40">
        <route edges="39 32 40 52 23 22"/>
    </vehicle>
    <vehicle id="152" depart="61.80">
        <route edges="27 6 14 36 57"/>
    </vehicle>
    <vehicle id="153" depart="62.20">
        <route edges="16 19 52 45 10"/>
    </vehicle>
    <vehicle id="154" depart="62.60">
        <route edges="3 71 7 13 62 68"/>
    </vehicle>
    <vehicle id="155" depart="63.00">
        <route edges="71 58 20 50 51"/>
    </vehicle>
    <vehicle id="156" depart="63.40">
        <route edges="29 4 43 63 12 6 14 64"/>
    </vehicle>
    <vehicle id="157" depart="63.80">
        <route edges="46 47 4 43 63 12 6 14 36"/>
    </vehicle>
    <vehicle id="158" depart="64.20">
        <route edges="39 12 6 14 36 49"/>
    </vehicle>
    <vehicle id="159" depart="64.60">
        <route edges="12 13 62"/>
    </vehicle>
    <vehicle id="160" depart="65.00">
        <route edges="57 51 21 55 3"/>
    </vehicle>
    <vehicle id="161" depart="65.40">
        <route edges="13 32 39"/>
    </vehicle>
    <vehicle id="162" depart="65.80">
        <route edges="57 22 53 41"/>
    </vehicle>
    <vehicle id="163" depart="66.20">
        <route edges="-gneE6 6 14 3"/>
    </vehicle>
    <vehicle id="164" depart="66.60">
        <route edges="64 14 36"/>
    </vehicle>
    <vehicle id="165" depart="67.00">
        <route edges="39 32 40 52"/>
    </vehicle>
    <vehicle id="166" depart="67.40">
        <route edges="53 34 19"/>
    </vehicle>
    <vehicle id="167" depart="67.80">
        <route edges="4 43 63 12 6 14 36 49"/>
    </vehicle>
    <vehicle id="168" depart="68.20">
        <route edges="3 71"/>
    </vehicle>
    <vehicle id="169" depart="68.60">
        <route edges="29 28 19 52"/>
    </vehicle>
    <vehicle id="170" depart="69.00">
        <route edges="13 62 63"/>
    </vehicle>
    <vehicle id="171" depart="69.40">
        <route edges="27 60"/>
    </vehicle>
    <vehicle id="172" depart="69.80">
        <route edges="16 17 43 66"/>
    </vehicle>
    <vehicle id="173" depart="70.20">
        <route edges="41 40"/>
    </vehicle>
    <vehicle id="174" depart="70.60">
        <route edges="62 63 12 6 14 3"/>
    </vehicle>
    <vehicle id="175" depart="71.00">
        <route edges="43 66 40 52"/>
    </vehicle>
    <vehicle id="176" depart="71.40">
        <route edges="50 30"/>
    </vehicle>
    <vehicle id="177" depart="71.80">
        <route edges="6 14"/>
    </vehicle>
    <vehicle id="178" depart="72.20">
        <route edges="58 20 50 22 53 34 29 46"/>
    </vehicle>
    <vehicle id="179" depart="72.60">
        <route edges="30 37 64 7 13"/>
    </vehicle>
    <vehicle id="180" depart="73.00">
        <route edges="62 63 12 6 58 55"/>
    </vehicle>
    <vehicle id="181" depart="73.40">
        <route edges="16 17 5"/>
    </vehicle>
    <vehicle id="182" depart="73.80">
        <route edges="68 16 19 52 53"/>
    </vehicle>
    <vehicle id="183" depart="74.20">
        <route edges="39 62 68 16 17"/>
    </vehicle>
    <vehicle id="184" depart="74.60">
        <route edges="27 13 32 39"/>
    </vehicle>
    <vehicle id="185" depart="75.00">
        <route edges="62 68 43"/>
    </vehicle>
    <vehicle id="186" depart="75.40">
        <route edges="29 4"/>
    </vehicle>
    <vehicle id="187" depart="75.80">
        <route edges="50 22 53 41 67"/>
    </vehicle>
    <vehicle id="188" depart="76.20">
        <route edges="13 32 40 52 23 22"/>
    </vehicle>
    <vehicle id="189" depart="76.60">
        <route edges="39 62 68 5 46"/>
    </vehicle>
    <vehicle id="190" depart="77.00">
        <route edges="27 13 32 40 52 53"/>
    </vehicle>
    <vehicle id="191" depart="77.40">
        <route edges="27 13 62 68 16 19"/>
    </vehicle>
    <vehicle id="192" depart="77.80">
        <route edges="57 22 53 34 29 28"/>
    </vehicle>
    <vehicle id="193" depart="78.20">
        <route edges="17 5 46"/>
    </vehicle>
    <vehicle id="194" depart="78.60">
        <route edges="50 22 53 41 67"/>
    </vehicle>
    <vehicle id="195" depart="79.00">
        <route edges="13 32 40 41"/>
    </vehicle>
    <vehicle id="196" depart="79.40">
        <route edges="19 41 39 27"/>
    </vehicle>
    <vehicle id="197" depart="79.80">
        <route edges="gneE6 12"/>
    </vehicle>
    <vehicle id="198" depart="80.20">
        <route edges="27 6 58 20 50"/>
    </vehicle>
    <vehicle id="199" depart="80.60">
        <route edges="68 43 63 12 6 58 71"/>
    </vehicle>
    <vehicle id="200" depart="81.00">
        <route edges="50 22 53 34 29 46 47"/>
    </vehicle>
    <vehicle id="201" depart="81.40">
        <route edges="17 43 66"/>
    </vehicle>
    <vehicle id="202" depart="81.80">
        <route edges="21 20 50 22 53 52"/>
    </vehicle>
    <vehicle id="203" depart="82.20">
        <route edges="64 7 13 27"/>
    </vehicle>
    <vehicle id="204" depart="82.60">
        <route edges="4 43 63 12 6 14 3"/>
    </vehicle>
    <vehicle id="205" depart="83.00">
        <route edges="12 13 62 68 5 28"/>
    </vehicle>
    <vehicle id="206" depart="83.40">
        <route edges="51 21"/>
    </vehicle>
    <vehicle id="207" depart="83.80">
        <route edges="6 58 71"/>
    </vehicle>
    <vehicle id="208" depart="84.20">
        <route edges="58 20 50 22 53 34"/>
    </vehicle>
    <vehicle id="209" depart="84.60">
        <route edges="58 20 50 22 53 34 29 4"/>
    </vehicle>
    <vehicle id="210" depart="85.00">
        <route edges="14 64 7 13 62 66"/>
    </vehicle>
    <vehicle id="211" depart="85.40">
        <route edges="68 16 19 52 23 51 48"/>
    </vehicle>
    <vehicle id="212" depart="85.80">
        <route edges="32 39 62"/>
    </vehicle>
    <vehicle id="213" depart="86.20">
        <route edges="22 53 41 67 68"/>
    </vehicle>
    <vehicle id="214" depart="86.60">
        <route edges="50 51 21 55 64"/>
    </vehicle>
    <vehicle id="215" depart="87.00">
        <route edges="57 22 53 41 39 -gneE6"/>
    </vehicle>
    <vehicle id="216" depart="87.40">
        <route edges="32 40 52 23"/>
    </vehicle>
    <vehicle id="217" depart="87.80">
        <route edges="36 37 64 7 gneE6"/>
    </vehicle>
    <vehicle id="218" depart="88.20">
        <route edges="55 64"/>
    </vehicle>
    <vehicle id="219" depart="88.60">
        <route edges="30 57 22 53 34"/>
    </vehicle>
    <vehicle id="220" depart="89.00">
        <route edges="4 16 19 52 23 51 50"/>
    </vehicle>
    <vehicle id="221" depart="89.40">
        <route edges="48 57 51"/>
    </vehicle>
    <vehicle id="222" depart="89.80">
        <route edges="6 7 13 32 40 34"/>
    </vehicle>
    <vehicle id="223" depart="90.20">
        <route edges="36 37 64 7 gneE6"/>
    </vehicle>
    <vehicle id="224" depart="90.60">
        <route edges="67 68 5 28"/>
    </vehicle>
    <vehicle id="225" depart="91.00">
        <route edges="58 71 7 13 62 68 16"/>
    </vehicle>
    <vehicle id="226" depart="91.40">
        <route edges="29 4 43 63 -gneE6"/>
    </vehicle>
    <vehicle id="227" depart="91.80">
        <route edges="53 41 39 12 6 7"/>
    </vehicle>
    <vehicle id="228" depart="92.20">
        <route edges="23 22 53 34 17 43"/>
    </vehicle>
    <vehicle id="229" depart="92.60">
        <route edges="50 22 53 34 29"/>
    </vehicle>
    <vehicle id="230" depart="93.00">
        <route edges="50 22 45"/>
    </vehicle>
    <vehicle id="231" depart="93.40">
        <route edges="12 13 32 40 52 45 10"/>
    </vehicle>
    <vehicle id="232" depart="93.80">
        <route edges="6 7 13 32 40 34"/>
    </vehicle>
    <vehicle id="233" depart="94.20">
        <route edges="50 22 53 34 29"/>
    </vehicle>
    <vehicle id="234" depart="94.60">
        <route edges="7 6 58"/>
    </vehicle>
    <vehicle id="235" depart="95.00">
        <route edges="40 52 45 10"/>
    </vehicle>
    <vehicle id="236" depart="95.40">
        <route edges="21 20 48"/>
    </vehicle>
    <vehicle id="237" depart="95.80">
        <route edges="6 7 13 -gneE6"/>
    </vehicle>
    <vehicle id="238" depart="96.20">
        <route edges="41 40 34 29"/>
    </vehicle>
    <vehicle id="239" depart="96.60">
        <route edges="68 5 28"/>
    </vehicle>
    <vehicle id="240" depart="97.00">
        <route edges="71 7 60"/>
    </vehicle>
    <vehicle id="241" depart="97.40">
        <route edges="23 22 53 41 67 66"/>
    </vehicle>
    <vehicle id="242" depart="97.80">
        <route edges="50 22 53 41 39 -gneE6"/>
    </vehicle>
    <vehicle id="243" depart="98.20">
        <route edges="22 53 34 17"/>
    </vehicle>
    <vehicle id="244" depart="98.60">
        <route edges="5 4 43 68"/>
    </vehicle>
    <vehicle id="245" depart="99.00">
        <route edges="40 52 23 51"/>
    </vehicle>
    <vehicle id="246" depart="99.40">
        <route edges="41 39 32"/>
    </vehicle>
    <vehicle id="247" depart="99.80">
        <route edges="17 43 63 12 6 14 36 37"/>
    </vehicle>
    <vehicle id="248" depart="100.20">
        <route edges="6 7 13 62 63"/>
    </vehicle>
    <vehicle id="249" depart="100.60">
        <route edges="4 16 19 34"/>
    </vehicle>
</routes>
