<?xml version="1.0" encoding="UTF-8"?>

<!-- generated on 05/18/19 20:24:16 by Eclipse SUMO duarouter Version 1.1.0
<configuration xmlns:xsi="http://www.w3.org/2001/XMLSchema-instance" xsi:noNamespaceSchemaLocation="http://sumo.dlr.de/xsd/duarouterConfiguration.xsd">

    <input>
        <net-file value="net-1net.net.xml"/>
        <route-files value="trips.trips.xml"/>
    </input>

    <output>
        <output-file value="output-net-1net/./rou275.rou.xml"/>
        <alternatives-output value="output-net-1net/./rou275.rou.alt.xml"/>
    </output>

    <time>
        <begin value="1.0"/>
        <end value="101.0"/>
    </time>

    <report>
        <no-warnings value="true"/>
        <ignore-errors value="true"/>
        <no-step-log value="true"/>
    </report>

</configuration>
-->

<routes xmlns:xsi="http://www.w3.org/2001/XMLSchema-instance" xsi:noNamespaceSchemaLocation="http://sumo.dlr.de/xsd/routes_file.xsd">
    <vehicle id="0" depart="1.00">
        <route edges="gneE6 27 6 14 36"/>
    </vehicle>
    <vehicle id="1" depart="1.36">
        <route edges="28 19 52 45"/>
    </vehicle>
    <vehicle id="2" depart="1.73">
        <route edges="12 6 58 20"/>
    </vehicle>
    <vehicle id="3" depart="2.09">
        <route edges="21 71 7 60"/>
    </vehicle>
    <vehicle id="4" depart="2.45">
        <route edges="63 62 66 40 52 45"/>
    </vehicle>
    <vehicle id="5" depart="2.82">
        <route edges="50 22 53 41 67"/>
    </vehicle>
    <vehicle id="6" depart="3.18">
        <route edges="50 51 21 71 7 gneE6"/>
    </vehicle>
    <vehicle id="7" depart="3.55">
        <route edges="40 34"/>
    </vehicle>
    <vehicle id="8" depart="3.91">
        <route edges="51 21 20"/>
    </vehicle>
    <vehicle id="9" depart="4.27">
        <route edges="10 53 34 29 46"/>
    </vehicle>
    <vehicle id="10" depart="4.64">
        <route edges="17 43 66 39"/>
    </vehicle>
    <vehicle id="11" depart="5.00">
        <route edges="7 6 14 36 49"/>
    </vehicle>
    <vehicle id="12" depart="5.36">
        <route edges="57 30"/>
    </vehicle>
    <vehicle id="13" depart="5.73">
        <route edges="17 5 46"/>
    </vehicle>
    <vehicle id="14" depart="6.09">
        <route edges="40 34 17"/>
    </vehicle>
    <vehicle id="15" depart="6.45">
        <route edges="64 58 20 48"/>
    </vehicle>
    <vehicle id="16" depart="6.82">
        <route edges="6 7 13 32 40 41"/>
    </vehicle>
    <vehicle id="17" depart="7.18">
        <route edges="62 63 12 6 58"/>
    </vehicle>
    <vehicle id="18" depart="7.55">
        <route edges="43 63 27"/>
    </vehicle>
    <vehicle id="19" depart="7.91">
        <route edges="39 32 40 41"/>
    </vehicle>
    <vehicle id="20" depart="8.27">
        <route edges="7 13 32 67"/>
    </vehicle>
    <vehicle id="21" depart="8.64">
        <route edges="29 4 43 63 12 13"/>
    </vehicle>
    <vehicle id="22" depart="9.00">
        <route edges="19 52 23 51 21 71"/>
    </vehicle>
    <vehicle id="23" depart="9.36">
        <route edges="67 66 40 52"/>
    </vehicle>
    <vehicle id="24" depart="9.73">
        <route edges="28 17 5"/>
    </vehicle>
    <vehicle id="25" depart="10.09">
        <route edges="5 28 19 41 40"/>
    </vehicle>
    <vehicle id="26" depart="10.45">
        <route edges="7 13 62 68 43"/>
    </vehicle>
    <vehicle id="27" depart="10.82">
        <route edges="45 10 53 34 17 5"/>
    </vehicle>
    <vehicle id="28" depart="11.18">
        <route edges="50 22 53 41 39 27"/>
    </vehicle>
    <vehicle id="29" depart="11.55">
        <route edges="gneE6"/>
    </vehicle>
    <vehicle id="30" depart="11.91">
        <route edges="gneE6"/>
    </vehicle>
    <vehicle id="31" depart="12.27">
        <route edges="47 4 43 66"/>
    </vehicle>
    <vehicle id="32" depart="12.64">
        <route edges="51 50 22 45 10"/>
    </vehicle>
    <vehicle id="33" depart="13.00">
        <route edges="17 43 63 12 6 58 20"/>
    </vehicle>
    <vehicle id="34" depart="13.36">
        <route edges="58 71 14"/>
    </vehicle>
    <vehicle id="35" depart="13.73">
        <route edges="-gneE6 13 62 66"/>
    </vehicle>
    <vehicle id="36" depart="14.09">
        <route edges="63 62 66 40"/>
    </vehicle>
    <vehicle id="37" depart="14.45">
        <route edges="32 40 34"/>
    </vehicle>
    <vehicle id="38" depart="14.82">
        <route edges="12 13 62 68 16 19"/>
    </vehicle>
    <vehicle id="39" depart="15.18">
        <route edges="23 22 53 34 29 28"/>
    </vehicle>
    <vehicle id="40" depart="15.55">
        <route edges="66 40 52 45 10"/>
    </vehicle>
    <vehicle id="41" depart="15.91">
        <route edges="32 40 52 23 51 48 49"/>
    </vehicle>
    <vehicle id="42" depart="16.27">
        <route edges="49 50 22 53 34 17 16"/>
    </vehicle>
    <vehicle id="43" depart="16.64">
        <route edges="51 48"/>
    </vehicle>
    <vehicle id="44" depart="17.00">
        <route edges="32 40 34 29"/>
    </vehicle>
    <vehicle id="45" depart="17.36">
        <route edges="62 66 40 52 23 30"/>
    </vehicle>
    <vehicle id="46" depart="17.73">
        <route edges="4 43 63 62"/>
    </vehicle>
    <vehicle id="47" depart="18.09">
        <route edges="66 67 68 43"/>
    </vehicle>
    <vehicle id="48" depart="18.45">
        <route edges="5 28 19 52 23 51 21 55"/>
    </vehicle>
    <vehicle id="49" depart="18.82">
        <route edges="47 28 19 52 23 51 21"/>
    </vehicle>
    <vehicle id="50" depart="19.18">
        <route edges="23 22 53 41 39 32"/>
    </vehicle>
    <vehicle id="51" depart="19.55">
        <route edges="30 57 22 53"/>
    </vehicle>
    <vehicle id="52" depart="19.91">
        <route edges="17 43 63 27"/>
    </vehicle>
    <vehicle id="53" depart="20.27">
        <route edges="43 66 40 52 23 30"/>
    </vehicle>
    <vehicle id="54" depart="20.64">
        <route edges="37 3 20 50 22"/>
    </vehicle>
    <vehicle id="55" depart="21.00">
        <route edges="17 16 19 52 23"/>
    </vehicle>
    <vehicle id="56" depart="21.36">
        <route edges="39 32 40 52 23 51"/>
    </vehicle>
    <vehicle id="57" depart="21.73">
        <route edges="36 57 22 53 34"/>
    </vehicle>
    <vehicle id="58" depart="22.09">
        <route edges="27 13 32 40 52 53"/>
    </vehicle>
    <vehicle id="59" depart="22.45">
        <route edges="40 41 39 12 13"/>
    </vehicle>
    <vehicle id="60" depart="22.82">
        <route edges="20 50 22 53 34 29 28"/>
    </vehicle>
    <vehicle id="61" depart="23.18">
        <route edges="53 41"/>
    </vehicle>
    <vehicle id="62" depart="23.55">
        <route edges="17 16 29"/>
    </vehicle>
    <vehicle id="63" depart="23.91">
        <route edges="60 62 66 40 41"/>
    </vehicle>
    <vehicle id="64" depart="24.27">
        <route edges="52 53 41 39 -gneE6"/>
    </vehicle>
    <vehicle id="65" depart="24.64">
        <route edges="gneE6 27 6 58"/>
    </vehicle>
    <vehicle id="66" depart="25.00">
        <route edges="6 7 13 32 40 34"/>
    </vehicle>
    <vehicle id="67" depart="25.36">
        <route edges="37 3 20 50"/>
    </vehicle>
    <vehicle id="68" depart="25.73">
        <route edges="19 41 39 12 gneE6"/>
    </vehicle>
    <vehicle id="69" depart="26.09">
        <route edges="49 50"/>
    </vehicle>
    <vehicle id="70" depart="26.45">
        <route edges="gneE6 62 66 40 52 23"/>
    </vehicle>
    <vehicle id="71" depart="26.82">
        <route edges="40 34 29 28"/>
    </vehicle>
    <vehicle id="72" depart="27.18">
        <route edges="62 63 12 60"/>
    </vehicle>
    <vehicle id="73" depart="27.55">
        <route edges="22 53 34 17 5"/>
    </vehicle>
    <vehicle id="74" depart="27.91">
        <route edges="13 62 68 16 19"/>
    </vehicle>
    <vehicle id="75" depart="28.27">
        <route edges="16 17 43 63 12 6 58"/>
    </vehicle>
    <vehicle id="76" depart="28.64">
        <route edges="13 27 6 58 20 50"/>
    </vehicle>
    <vehicle id="77" depart="29.00">
        <route edges="27 13 32 40 34"/>
    </vehicle>
    <vehicle id="78" depart="29.36">
        <route edges="53 52"/>
    </vehicle>
    <vehicle id="79" depart="29.73">
        <route edges="67 63 12 6 58 55"/>
    </vehicle>
    <vehicle id="80" depart="30.09">
        <route edges="23 22 53 34 29 4"/>
    </vehicle>
    <vehicle id="81" depart="30.45">
        <route edges="21 71 7"/>
    </vehicle>
    <vehicle id="82" depart="30.82">
        <route edges="67 68 16 29"/>
    </vehicle>
    <vehicle id="83" depart="31.18">
        <route edges="21 20 50 22 53 34"/>
    </vehicle>
    <vehicle id="84" depart="31.55">
        <route edges="50"/>
    </vehicle>
    <vehicle id="85" depart="31.91">
        <route edges="68 43 63 12 6 14 64"/>
    </vehicle>
    <vehicle id="86" depart="32.27">
        <route edges="7 13 62 68 16 17"/>
    </vehicle>
    <vehicle id="87" depart="32.64">
        <route edges="47 28 19"/>
    </vehicle>
    <vehicle id="88" depart="33.00">
        <route edges="34 17 43 63 12 6 14 36"/>
    </vehicle>
    <vehicle id="89" depart="33.36">
        <route edges="40 52 45"/>
    </vehicle>
    <vehicle id="90" depart="33.73">
        <route edges="19 34 29 28"/>
    </vehicle>
    <vehicle id="91" depart="34.09">
        <route edges="64 58 20 50 22 53"/>
    </vehicle>
    <vehicle id="92" depart="34.45">
        <route edges="51 50 22 23"/>
    </vehicle>
    <vehicle id="93" depart="34.82">
        <route edges="55 64 7 60"/>
    </vehicle>
    <vehicle id="94" depart="35.18">
        <route edges="13 27 6 14 36 37"/>
    </vehicle>
    <vehicle id="95" depart="35.55">
        <route edges="6 7 60"/>
    </vehicle>
    <vehicle id="96" depart="35.91">
        <route edges="13 62 68 16 17"/>
    </vehicle>
    <vehicle id="97" depart="36.27">
        <route edges="7 6 14 64"/>
    </vehicle>
    <vehicle id="98" depart="36.64">
        <route edges="36 37 64 7 gneE6"/>
    </vehicle>
    <vehicle id="99" depart="37.00">
        <route edges="57 22 23"/>
    </vehicle>
    <vehicle id="100" depart="37.36">
        <route edges="27 60"/>
    </vehicle>
    <vehicle id="101" depart="37.73">
        <route edges="49 21"/>
    </vehicle>
    <vehicle id="102" depart="38.09">
        <route edges="14 36 37"/>
    </vehicle>
    <vehicle id="103" depart="38.45">
        <route edges="14 64 7 13 62 66"/>
    </vehicle>
    <vehicle id="104" depart="38.82">
        <route edges="19 52 23 51 21 71"/>
    </vehicle>
    <vehicle id="105" depart="39.18">
        <route edges="30 37 64 7 6"/>
    </vehicle>
    <vehicle id="106" depart="39.55">
        <route edges="32 39 12 6 14 3"/>
    </vehicle>
    <vehicle id="107" depart="39.91">
        <route edges="40 52 23 51 21 55 36"/>
    </vehicle>
    <vehicle id="108" depart="40.27">
        <route edges="29 4 43 63 12"/>
    </vehicle>
    <vehicle id="109" depart="40.64">
        <route edges="62 66 40 52 23"/>
    </vehicle>
    <vehicle id="110" depart="41.00">
        <route edges="53 34 29"/>
    </vehicle>
    <vehicle id="111" depart="41.36">
        <route edges="21 71 7"/>
    </vehicle>
    <vehicle id="112" depart="41.73">
        <route edges="45 10 53 41 39 12"/>
    </vehicle>
    <vehicle id="113" depart="42.09">
        <route edges="71 58 20 48"/>
    </vehicle>
    <vehicle id="114" depart="42.45">
        <route edges="43"/>
    </vehicle>
    <vehicle id="115" depart="42.82">
        <route edges="3 71 7 13 62"/>
    </vehicle>
    <vehicle id="116" depart="43.18">
        <route edges="62 63 12 6 58 20 50"/>
    </vehicle>
    <vehicle id="117" depart="43.55">
        <route edges="29 4 43 68"/>
    </vehicle>
    <vehicle id="118" depart="43.91">
        <route edges="41 40 34 29 46 47"/>
    </vehicle>
    <vehicle id="119" depart="44.27">
        <route edges="13 62 68 16 19"/>
    </vehicle>
    <vehicle id="120" depart="44.64">
        <route edges="23"/>
    </vehicle>
    <vehicle id="121" depart="45.00">
        <route edges="27 6 14 36"/>
    </vehicle>
    <vehicle id="122" depart="45.36">
        <route edges="71 14 64"/>
    </vehicle>
    <vehicle id="123" depart="45.73">
        <route edges="52 53 41 39 12 13"/>
    </vehicle>
    <vehicle id="124" depart="46.09">
        <route edges="40 41 39 12 6"/>
    </vehicle>
    <vehicle id="125" depart="46.45">
        <route edges="17 43 66"/>
    </vehicle>
    <vehicle id="126" depart="46.82">
        <route edges="30 37 36"/>
    </vehicle>
    <vehicle id="127" depart="47.18">
        <route edges="12 13 62 68 16 19"/>
    </vehicle>
    <vehicle id="128" depart="47.55">
        <route edges="37 64 7 13 32 67"/>
    </vehicle>
    <vehicle id="129" depart="47.91">
        <route edges="10 53 41 39 12 6"/>
    </vehicle>
    <vehicle id="130" depart="48.27">
        <route edges="4 16 19 52 23 51 50"/>
    </vehicle>
    <vehicle id="131" depart="48.64">
        <route edges="43 63 -gneE6"/>
    </vehicle>
    <vehicle id="132" depart="49.00">
        <route edges="58 20 50 51"/>
    </vehicle>
    <vehicle id="133" depart="49.36">
        <route edges="51 21 71 7"/>
    </vehicle>
    <vehicle id="134" depart="49.73">
        <route edges="17 16 19 52 45"/>
    </vehicle>
    <vehicle id="135" depart="50.09">
        <route edges="20 50 22 53 41 67"/>
    </vehicle>
    <vehicle id="136" depart="50.45">
        <route edges="30 37 64 7 13 62 68 43"/>
    </vehicle>
    <vehicle id="137" depart="50.82">
        <route edges="46 47 4 43 63 12 6 14 3"/>
    </vehicle>
    <vehicle id="138" depart="51.18">
        <route edges="40 41 39 27"/>
    </vehicle>
    <vehicle id="139" depart="51.55">
        <route edges="19 52 23 51 48 37"/>
    </vehicle>
    <vehicle id="140" depart="51.91">
        <route edges="14 3 20 50 30"/>
    </vehicle>
    <vehicle id="141" depart="52.27">
        <route edges="46 47 28 29"/>
    </vehicle>
    <vehicle id="142" depart="52.64">
        <route edges="gneE6 62 66 40 52 45 10"/>
    </vehicle>
    <vehicle id="143" depart="53.00">
        <route edges="4 43 63 12 6"/>
    </vehicle>
    <vehicle id="144" depart="53.36">
        <route edges="17"/>
    </vehicle>
    <vehicle id="145" depart="53.73">
        <route edges="22 23 51 21 20"/>
    </vehicle>
    <vehicle id="146" depart="54.09">
        <route edges="62 63 12 6 58 55"/>
    </vehicle>
    <vehicle id="147" depart="54.45">
        <route edges="62 68 5 46"/>
    </vehicle>
    <vehicle id="148" depart="54.82">
        <route edges="52 53 41 39 12 60"/>
    </vehicle>
    <vehicle id="149" depart="55.18">
        <route edges="12 13 62 68 16 29"/>
    </vehicle>
    <vehicle id="150" depart="55.55">
        <route edges="49 50 22 53 34 29 4"/>
    </vehicle>
    <vehicle id="151" depart="55.91">
        <route edges="40 41 67 68"/>
    </vehicle>
    <vehicle id="152" depart="56.27">
        <route edges="4 43 63 12 gneE6"/>
    </vehicle>
    <vehicle id="153" depart="56.64">
        <route edges="63 62 66 40 52 23"/>
    </vehicle>
    <vehicle id="154" depart="57.00">
        <route edges="51 50 22 45 10"/>
    </vehicle>
    <vehicle id="155" depart="57.36">
        <route edges="43 66 40 52 53"/>
    </vehicle>
    <vehicle id="156" depart="57.73">
        <route edges="39 62 68 5 28"/>
    </vehicle>
    <vehicle id="157" depart="58.09">
        <route edges="6 58 20 50 22 23"/>
    </vehicle>
    <vehicle id="158" depart="58.45">
        <route edges="13 27 6 14 64"/>
    </vehicle>
    <vehicle id="159" depart="58.82">
        <route edges="71 7 13 32 40 41"/>
    </vehicle>
    <vehicle id="160" depart="59.18">
        <route edges="32 40 52 23 51 48"/>
    </vehicle>
    <vehicle id="161" depart="59.55">
        <route edges="68 5"/>
    </vehicle>
    <vehicle id="162" depart="59.91">
        <route edges="-gneE6 6 14 36 37"/>
    </vehicle>
    <vehicle id="163" depart="60.27">
        <route edges="68 16 19 52 23 51 50"/>
    </vehicle>
    <vehicle id="164" depart="60.64">
        <route edges="3 55 36 49"/>
    </vehicle>
    <vehicle id="165" depart="61.00">
        <route edges="45 10 23 51 48 49"/>
    </vehicle>
    <vehicle id="166" depart="61.36">
        <route edges="5 28 19 52 23 30"/>
    </vehicle>
    <vehicle id="167" depart="61.73">
        <route edges="3 71 7 13 62 66"/>
    </vehicle>
    <vehicle id="168" depart="62.09">
        <route edges="36 57 22 53 41 39"/>
    </vehicle>
    <vehicle id="169" depart="62.45">
        <route edges="63 62 66 40 34"/>
    </vehicle>
    <vehicle id="170" depart="62.82">
        <route edges="gneE6 62 68 5 46 47"/>
    </vehicle>
    <vehicle id="171" depart="63.18">
        <route edges="57 30 37"/>
    </vehicle>
    <vehicle id="172" depart="63.55">
        <route edges="5 28 19 41 67"/>
    </vehicle>
    <vehicle id="173" depart="63.91">
        <route edges="17 43"/>
    </vehicle>
    <vehicle id="174" depart="64.27">
        <route edges="4 16 19 52 23 51 21"/>
    </vehicle>
    <vehicle id="175" depart="64.64">
        <route edges="68 5 4"/>
    </vehicle>
    <vehicle id="176" depart="65.00">
        <route edges="3 71 14"/>
    </vehicle>
    <vehicle id="177" depart="65.36">
        <route edges="68 43 63 12 gneE6"/>
    </vehicle>
    <vehicle id="178" depart="65.73">
        <route edges="64 58 20"/>
    </vehicle>
    <vehicle id="179" depart="66.09">
        <route edges="66 39 12 6 14 3"/>
    </vehicle>
    <vehicle id="180" depart="66.45">
        <route edges="5 28 29"/>
    </vehicle>
    <vehicle id="181" depart="66.82">
        <route edges="gneE6 27 6 14 36 57"/>
    </vehicle>
    <vehicle id="182" depart="67.18">
        <route edges="53 41"/>
    </vehicle>
    <vehicle id="183" depart="67.55">
        <route edges="32 40 52 23 30"/>
    </vehicle>
    <vehicle id="184" depart="67.91">
        <route edges="68 16 19 52 23 51 21"/>
    </vehicle>
    <vehicle id="185" depart="68.27">
        <route edges="10 53 41"/>
    </vehicle>
    <vehicle id="186" depart="68.64">
        <route edges="20 21 71 58"/>
    </vehicle>
    <vehicle id="187" depart="69.00">
        <route edges="71 14 36 57"/>
    </vehicle>
    <vehicle id="188" depart="69.36">
        <route edges="55 64 7 13"/>
    </vehicle>
    <vehicle id="189" depart="69.73">
        <route edges="43 63 32"/>
    </vehicle>
    <vehicle id="190" depart="70.09">
        <route edges="39 62"/>
    </vehicle>
    <vehicle id="191" depart="70.45">
        <route edges="67 63 12 gneE6"/>
    </vehicle>
    <vehicle id="192" depart="70.82">
        <route edges="23 51 21 55 64"/>
    </vehicle>
    <vehicle id="193" depart="71.18">
        <route edges="-gneE6 6 14"/>
    </vehicle>
    <vehicle id="194" depart="71.55">
        <route edges="5 28 19 52 53"/>
    </vehicle>
    <vehicle id="195" depart="71.91">
        <route edges="43 63 12"/>
    </vehicle>
    <vehicle id="196" depart="72.27">
        <route edges="48 57 30"/>
    </vehicle>
    <vehicle id="197" depart="72.64">
        <route edges="17 43 63 12 6 14 64"/>
    </vehicle>
    <vehicle id="198" depart="73.00">
        <route edges="51 50 22 53 41 67 66"/>
    </vehicle>
    <vehicle id="199" depart="73.36">
        <route edges="60 27 6 58 20 48"/>
    </vehicle>
    <vehicle id="200" depart="73.73">
        <route edges="13 62 63"/>
    </vehicle>
    <vehicle id="201" depart="74.09">
        <route edges="22 45 10"/>
    </vehicle>
    <vehicle id="202" depart="74.45">
        <route edges="46 47 28 19 52 23 51 48"/>
    </vehicle>
    <vehicle id="203" depart="74.82">
        <route edges="50 22 53 41 39 62"/>
    </vehicle>
    <vehicle id="204" depart="75.18">
        <route edges="14 64 7 13 62 68 5 4"/>
    </vehicle>
    <vehicle id="205" depart="75.55">
        <route edges="29 4 43 63 12 6"/>
    </vehicle>
    <vehicle id="206" depart="75.91">
        <route edges="43 68 5"/>
    </vehicle>
    <vehicle id="207" depart="76.27">
        <route edges="21 20 50 22 53 41 40"/>
    </vehicle>
    <vehicle id="208" depart="76.64">
        <route edges="47 4 43 63 12"/>
    </vehicle>
    <vehicle id="209" depart="77.00">
        <route edges="17 43 63 12 6 14 36 37"/>
    </vehicle>
    <vehicle id="210" depart="77.36">
        <route edges="39 12 6 14 36 57"/>
    </vehicle>
    <vehicle id="211" depart="77.73">
        <route edges="41 39 12 gneE6"/>
    </vehicle>
    <vehicle id="212" depart="78.09">
        <route edges="5 28 19 41 67"/>
    </vehicle>
    <vehicle id="213" depart="78.45">
        <route edges="27 6 14 3"/>
    </vehicle>
    <vehicle id="214" depart="78.82">
        <route edges="43 63 12 6 58 20 21"/>
    </vehicle>
    <vehicle id="215" depart="79.18">
        <route edges="20 21 71 7 13 32"/>
    </vehicle>
    <vehicle id="216" depart="79.55">
        <route edges="47 46"/>
    </vehicle>
    <vehicle id="217" depart="79.91">
        <route edges="21 20 50 22 53 41 67"/>
    </vehicle>
    <vehicle id="218" depart="80.27">
        <route edges="71 7 13 12"/>
    </vehicle>
    <vehicle id="219" depart="80.64">
        <route edges="53 41 67"/>
    </vehicle>
    <vehicle id="220" depart="81.00">
        <route edges="3"/>
    </vehicle>
    <vehicle id="221" depart="81.36">
        <route edges="21 20 50 22 53 41 67"/>
    </vehicle>
    <vehicle id="222" depart="81.73">
        <route edges="39 32 40"/>
    </vehicle>
    <vehicle id="223" depart="82.09">
        <route edges="57 22 53 41 39"/>
    </vehicle>
    <vehicle id="224" depart="82.45">
        <route edges="71 14 36 57"/>
    </vehicle>
    <vehicle id="225" depart="82.82">
        <route edges="55 64 7 13 62 68 5 46 47"/>
    </vehicle>
    <vehicle id="226" depart="83.18">
        <route edges="34 17 43 63 12 6 7"/>
    </vehicle>
    <vehicle id="227" depart="83.55">
        <route edges="53 52 23 51 21 55 36"/>
    </vehicle>
    <vehicle id="228" depart="83.91">
        <route edges="49 21 71 7 13 32"/>
    </vehicle>
    <vehicle id="229" depart="84.27">
        <route edges="45 10 23 51 48 37"/>
    </vehicle>
    <vehicle id="230" depart="84.64">
        <route edges="20 48 57"/>
    </vehicle>
    <vehicle id="231" depart="85.00">
        <route edges="49 50 22 53 34 29 28"/>
    </vehicle>
    <vehicle id="232" depart="85.36">
        <route edges="60 62 66 39"/>
    </vehicle>
    <vehicle id="233" depart="85.73">
        <route edges="20 21 71 7 13"/>
    </vehicle>
    <vehicle id="234" depart="86.09">
        <route edges="66 40 52 23 22"/>
    </vehicle>
    <vehicle id="235" depart="86.45">
        <route edges="34 17 43 63 62"/>
    </vehicle>
    <vehicle id="236" depart="86.82">
        <route edges="47 28 19 52 45"/>
    </vehicle>
    <vehicle id="237" depart="87.18">
        <route edges="63 62 66 40 52 45 10"/>
    </vehicle>
    <vehicle id="238" depart="87.55">
        <route edges="17 43 66 40"/>
    </vehicle>
    <vehicle id="239" depart="87.91">
        <route edges="71 7 13 62 68 5 46 47"/>
    </vehicle>
    <vehicle id="240" depart="88.27">
        <route edges="71 58 20 50"/>
    </vehicle>
    <vehicle id="241" depart="88.64">
        <route edges="10 53"/>
    </vehicle>
    <vehicle id="242" depart="89.00">
        <route edges="21 20 50 22 53 34 29 28"/>
    </vehicle>
    <vehicle id="243" depart="89.36">
        <route edges="27 6 7"/>
    </vehicle>
    <vehicle id="244" depart="89.73">
        <route edges="13"/>
    </vehicle>
    <vehicle id="245" depart="90.09">
        <route edges="37 64 7 13 62 66"/>
    </vehicle>
    <vehicle id="246" depart="90.45">
        <route edges="36 57 30"/>
    </vehicle>
    <vehicle id="247" depart="90.82">
        <route edges="12 6 14 64"/>
    </vehicle>
    <vehicle id="248" depart="91.18">
        <route edges="-gneE6 6 14 36 49"/>
    </vehicle>
    <vehicle id="249" depart="91.55">
        <route edges="62 63 12 6 58 20 50"/>
    </vehicle>
    <vehicle id="250" depart="91.91">
        <route edges="39 62 68 43"/>
    </vehicle>
    <vehicle id="251" depart="92.27">
        <route edges="51 50 22 53 34 29 46"/>
    </vehicle>
    <vehicle id="252" depart="92.64">
        <route edges="23 51"/>
    </vehicle>
    <vehicle id="253" depart="93.00">
        <route edges="43 68 16 19"/>
    </vehicle>
    <vehicle id="254" depart="93.36">
        <route edges="60 62"/>
    </vehicle>
    <vehicle id="255" depart="93.73">
        <route edges="48 57 22 53 34 29"/>
    </vehicle>
    <vehicle id="256" depart="94.09">
        <route edges="4 43 63 12 gneE6"/>
    </vehicle>
    <vehicle id="257" depart="94.45">
        <route edges="62 63 12 6 14 36"/>
    </vehicle>
    <vehicle id="258" depart="94.82">
        <route edges="17 43 63 12 6 58"/>
    </vehicle>
    <vehicle id="259" depart="95.18">
        <route edges="57 22 45"/>
    </vehicle>
    <vehicle id="260" depart="95.55">
        <route edges="67 63 27"/>
    </vehicle>
    <vehicle id="261" depart="95.91">
        <route edges="39 32 67"/>
    </vehicle>
    <vehicle id="262" depart="96.27">
        <route edges="36 57 22 53 34 29"/>
    </vehicle>
    <vehicle id="263" depart="96.64">
        <route edges="17 16 19 34"/>
    </vehicle>
    <vehicle id="264" depart="97.00">
        <route edges="27 gneE6"/>
    </vehicle>
    <vehicle id="265" depart="97.36">
        <route edges="46 47 28 19 52 23 51 48 37"/>
    </vehicle>
    <vehicle id="266" depart="97.73">
        <route edges="30 37 3"/>
    </vehicle>
    <vehicle id="267" depart="98.09">
        <route edges="29 28 19 41 39"/>
    </vehicle>
    <vehicle id="268" depart="98.45">
        <route edges="6 7 13 62 68 16 17"/>
    </vehicle>
    <vehicle id="269" depart="98.82">
        <route edges="13 27 6 14 36 49"/>
    </vehicle>
    <vehicle id="270" depart="99.18">
        <route edges="19 34 29 4"/>
    </vehicle>
    <vehicle id="271" depart="99.55">
        <route edges="21 20 50 22 53 34 29"/>
    </vehicle>
    <vehicle id="272" depart="99.91">
        <route edges="23 22 45"/>
    </vehicle>
    <vehicle id="273" depart="100.27">
        <route edges="37 64 7 13 27"/>
    </vehicle>
    <vehicle id="274" depart="100.64">
        <route edges="62 66 40 52 23 30"/>
    </vehicle>
</routes>
