<?xml version="1.0" encoding="UTF-8"?>

<!-- generated on 05/18/19 20:24:17 by Eclipse SUMO duarouter Version 1.1.0
<configuration xmlns:xsi="http://www.w3.org/2001/XMLSchema-instance" xsi:noNamespaceSchemaLocation="http://sumo.dlr.de/xsd/duarouterConfiguration.xsd">

    <input>
        <net-file value="net-1net.net.xml"/>
        <route-files value="trips.trips.xml"/>
    </input>

    <output>
        <output-file value="output-net-1net/./rou300.rou.xml"/>
        <alternatives-output value="output-net-1net/./rou300.rou.alt.xml"/>
    </output>

    <time>
        <begin value="1.0"/>
        <end value="101.0"/>
    </time>

    <report>
        <no-warnings value="true"/>
        <ignore-errors value="true"/>
        <no-step-log value="true"/>
    </report>

</configuration>
-->

<routes xmlns:xsi="http://www.w3.org/2001/XMLSchema-instance" xsi:noNamespaceSchemaLocation="http://sumo.dlr.de/xsd/routes_file.xsd">
    <vehicle id="0" depart="1.00">
        <route edges="50 51 48 37"/>
    </vehicle>
    <vehicle id="1" depart="1.33">
        <route edges="47 4 43 63 12 6 58"/>
    </vehicle>
    <vehicle id="2" depart="1.67">
        <route edges="17 43 63 12 6 14 64"/>
    </vehicle>
    <vehicle id="3" depart="2.00">
        <route edges="32 39 12 13"/>
    </vehicle>
    <vehicle id="4" depart="2.33">
        <route edges="7 13 62 68 16 19"/>
    </vehicle>
    <vehicle id="5" depart="2.67">
        <route edges="gneE6"/>
    </vehicle>
    <vehicle id="6" depart="3.00">
        <route edges="10"/>
    </vehicle>
    <vehicle id="7" depart="3.33">
        <route edges="50 22 53 34 17"/>
    </vehicle>
    <vehicle id="8" depart="3.67">
        <route edges="29 4 43 63 12"/>
    </vehicle>
    <vehicle id="9" depart="4.00">
        <route edges="29 4 43 63 12 13"/>
    </vehicle>
    <vehicle id="10" depart="4.33">
        <route edges="39"/>
    </vehicle>
    <vehicle id="11" depart="4.67">
        <route edges="-gneE6 6 14 36"/>
    </vehicle>
    <vehicle id="12" depart="5.00">
        <route edges="20 21 71 14"/>
    </vehicle>
    <vehicle id="13" depart="5.33">
        <route edges="39 32 40 52 23"/>
    </vehicle>
    <vehicle id="14" depart="5.67">
        <route edges="21 20 50 22 53 41 67"/>
    </vehicle>
    <vehicle id="15" depart="6.00">
        <route edges="13 62 66"/>
    </vehicle>
    <vehicle id="16" depart="6.33">
        <route edges="64"/>
    </vehicle>
    <vehicle id="17" depart="6.67">
        <route edges="22 53 41 67"/>
    </vehicle>
    <vehicle id="18" depart="7.00">
        <route edges="46 47 28 19 52 45 10"/>
    </vehicle>
    <vehicle id="19" depart="7.33">
        <route edges="20 21 71 7 13 62 66"/>
    </vehicle>
    <vehicle id="20" depart="7.67">
        <route edges="4 43 63 12 6 14 36 57"/>
    </vehicle>
    <vehicle id="21" depart="8.00">
        <route edges="68 43 63 12 6 14 36 57"/>
    </vehicle>
    <vehicle id="22" depart="8.33">
        <route edges="23 51 48 57"/>
    </vehicle>
    <vehicle id="23" depart="8.67">
        <route edges="41 39 12 13"/>
    </vehicle>
    <vehicle id="24" depart="9.00">
        <route edges="67 66 40 41"/>
    </vehicle>
    <vehicle id="25" depart="9.33">
        <route edges="64 7 13 62 68 43"/>
    </vehicle>
    <vehicle id="26" depart="9.67">
        <route edges="39 12 gneE6"/>
    </vehicle>
    <vehicle id="27" depart="10.00">
        <route edges="60 62 68 16 17"/>
    </vehicle>
    <vehicle id="28" depart="10.33">
        <route edges="12 6 58 55"/>
    </vehicle>
    <vehicle id="29" depart="10.67">
        <route edges="30 49 21"/>
    </vehicle>
    <vehicle id="30" depart="11.00">
        <route edges="51 21 71 7 60"/>
    </vehicle>
    <vehicle id="31" depart="11.33">
        <route edges="51 50 22 53 41 67 68"/>
    </vehicle>
    <vehicle id="32" depart="11.67">
        <route edges="13 62 68 16 29"/>
    </vehicle>
    <vehicle id="33" depart="12.00">
        <route edges="46 47 28 19"/>
    </vehicle>
    <vehicle id="34" depart="12.33">
        <route edges="57 22 53 41 39 32"/>
    </vehicle>
    <vehicle id="35" depart="12.67">
        <route edges="49 21 71 58"/>
    </vehicle>
    <vehicle id="36" depart="13.00">
        <route edges="gneE6 27 6 14 36 57"/>
    </vehicle>
    <vehicle id="37" depart="13.33">
        <route edges="55 64 58"/>
    </vehicle>
    <vehicle id="38" depart="13.67">
        <route edges="55 64 7 gneE6"/>
    </vehicle>
    <vehicle id="39" depart="14.00">
        <route edges="16 19 52 23 22"/>
    </vehicle>
    <vehicle id="40" depart="14.33">
        <route edges="12 6 58 20"/>
    </vehicle>
    <vehicle id="41" depart="14.67">
        <route edges="36 57 22 53 41"/>
    </vehicle>
    <vehicle id="42" depart="15.00">
        <route edges="34 17 43 63 12 6 7"/>
    </vehicle>
    <vehicle id="43" depart="15.33">
        <route edges="57 22 53 41 67 68"/>
    </vehicle>
    <vehicle id="44" depart="15.67">
        <route edges="49 50 22 53"/>
    </vehicle>
    <vehicle id="45" depart="16.00">
        <route edges="32 40 52 23 51 50"/>
    </vehicle>
    <vehicle id="46" depart="16.33">
        <route edges="52 53 41 39 62"/>
    </vehicle>
    <vehicle id="47" depart="16.67">
        <route edges="37 3 55"/>
    </vehicle>
    <vehicle id="48" depart="17.00">
        <route edges="14 64 7 13 62 68 5 46"/>
    </vehicle>
    <vehicle id="49" depart="17.33">
        <route edges="40 41 67 68"/>
    </vehicle>
    <vehicle id="50" depart="17.67">
        <route edges="53 52 23 51 50"/>
    </vehicle>
    <vehicle id="51" depart="18.00">
        <route edges="53 52 23 51 48 49"/>
    </vehicle>
    <vehicle id="52" depart="18.33">
        <route edges="39 12 6 58 20"/>
    </vehicle>
    <vehicle id="53" depart="18.67">
        <route edges="7 6 14 36 49"/>
    </vehicle>
    <vehicle id="54" depart="19.00">
        <route edges="10"/>
    </vehicle>
    <vehicle id="55" depart="19.33">
        <route edges="3 71 7 6"/>
    </vehicle>
    <vehicle id="56" depart="19.67">
        <route edges="21 71 7 60"/>
    </vehicle>
    <vehicle id="57" depart="20.00">
        <route edges="57 22 23"/>
    </vehicle>
    <vehicle id="58" depart="20.33">
        <route edges="43 66 67"/>
    </vehicle>
    <vehicle id="59" depart="20.67">
        <route edges="71 7"/>
    </vehicle>
    <vehicle id="60" depart="21.00">
        <route edges="66 39 12"/>
    </vehicle>
    <vehicle id="61" depart="21.33">
        <route edges="58 20 50 22 53 41 39"/>
    </vehicle>
    <vehicle id="62" depart="21.67">
        <route edges="67 68 5 28"/>
    </vehicle>
    <vehicle id="63" depart="22.00">
        <route edges="20 50 22 53 34 29 28"/>
    </vehicle>
    <vehicle id="64" depart="22.33">
        <route edges="60 62 66 67"/>
    </vehicle>
    <vehicle id="65" depart="22.67">
        <route edges="52 23 51 50"/>
    </vehicle>
    <vehicle id="66" depart="23.00">
        <route edges="46 47 4 43"/>
    </vehicle>
    <vehicle id="67" depart="23.33">
        <route edges="67 66 40"/>
    </vehicle>
    <vehicle id="68" depart="23.67">
        <route edges="34 19 52 23 51 48"/>
    </vehicle>
    <vehicle id="69" depart="24.00">
        <route edges="4 43 63 12 6 7"/>
    </vehicle>
    <vehicle id="70" depart="24.33">
        <route edges="45 10 53 34"/>
    </vehicle>
    <vehicle id="71" depart="24.67">
        <route edges="30 37 64 7 13 62 68"/>
    </vehicle>
    <vehicle id="72" depart="25.00">
        <route edges="57 51 50"/>
    </vehicle>
    <vehicle id="73" depart="25.33">
        <route edges="-gneE6 13 62 68 43"/>
    </vehicle>
    <vehicle id="74" depart="25.67">
        <route edges="6 14 36"/>
    </vehicle>
    <vehicle id="75" depart="26.00">
        <route edges="55 64 7 13 62 68 43"/>
    </vehicle>
    <vehicle id="76" depart="26.33">
        <route edges="28 19 52 23 51 21"/>
    </vehicle>
    <vehicle id="77" depart="26.67">
        <route edges="32 40 52 23"/>
    </vehicle>
    <vehicle id="78" depart="27.00">
        <route edges="48 57 30"/>
    </vehicle>
    <vehicle id="79" depart="27.33">
        <route edges="13 32 40 41"/>
    </vehicle>
    <vehicle id="80" depart="27.67">
        <route edges="63 12 6 14 36"/>
    </vehicle>
    <vehicle id="81" depart="28.00">
        <route edges="34 19 41 40"/>
    </vehicle>
    <vehicle id="82" depart="28.33">
        <route edges="19 34 29 28"/>
    </vehicle>
    <vehicle id="83" depart="28.67">
        <route edges="63 62 68 5 4"/>
    </vehicle>
    <vehicle id="84" depart="29.00">
        <route edges="53"/>
    </vehicle>
    <vehicle id="85" depart="29.33">
        <route edges="53 41 67 68"/>
    </vehicle>
    <vehicle id="86" depart="29.67">
        <route edges="-gneE6 13 12"/>
    </vehicle>
    <vehicle id="87" depart="30.00">
        <route edges="66 40 34 19"/>
    </vehicle>
    <vehicle id="88" depart="30.33">
        <route edges="64 7 13 62 68"/>
    </vehicle>
    <vehicle id="89" depart="30.67">
        <route edges="58 71 7 13 62 68"/>
    </vehicle>
    <vehicle id="90" depart="31.00">
        <route edges="21 71 7 13 62 63"/>
    </vehicle>
    <vehicle id="91" depart="31.33">
        <route edges="66 40 34 17"/>
    </vehicle>
    <vehicle id="92" depart="31.67">
        <route edges="13 27 6 58 20"/>
    </vehicle>
    <vehicle id="93" depart="32.00">
        <route edges="29 4 43 63 -gneE6"/>
    </vehicle>
    <vehicle id="94" depart="32.33">
        <route edges="60 62 63"/>
    </vehicle>
    <vehicle id="95" depart="32.67">
        <route edges="gneE6 62 68 16 17"/>
    </vehicle>
    <vehicle id="96" depart="33.00">
        <route edges="13 62 63"/>
    </vehicle>
    <vehicle id="97" depart="33.33">
        <route edges="48 37 64 58"/>
    </vehicle>
    <vehicle id="98" depart="33.67">
        <route edges="12 6 58 20 50 51"/>
    </vehicle>
    <vehicle id="99" depart="34.00">
        <route edges="gneE6 62 66 40 52 53"/>
    </vehicle>
    <vehicle id="100" depart="34.33">
        <route edges="41 40 52 53"/>
    </vehicle>
    <vehicle id="101" depart="34.67">
        <route edges="37 64 7 13"/>
    </vehicle>
    <vehicle id="102" depart="35.00">
        <route edges="20 50 22 53 34 29 46 47"/>
    </vehicle>
    <vehicle id="103" depart="35.33">
        <route edges="22 53 34 17 43"/>
    </vehicle>
    <vehicle id="104" depart="35.67">
        <route edges="14 3 71"/>
    </vehicle>
    <vehicle id="105" depart="36.00">
        <route edges="4 43 63 12 6 14 36"/>
    </vehicle>
    <vehicle id="106" depart="36.33">
        <route edges="21 55"/>
    </vehicle>
    <vehicle id="107" depart="36.67">
        <route edges="47 28 19 52 23 30"/>
    </vehicle>
    <vehicle id="108" depart="37.00">
        <route edges="51 21 55 64"/>
    </vehicle>
    <vehicle id="109" depart="37.33">
        <route edges="68 43 63 12 13"/>
    </vehicle>
    <vehicle id="110" depart="37.67">
        <route edges="17 43 63 12 6 14 64"/>
    </vehicle>
    <vehicle id="111" depart="38.00">
        <route edges="22 53 34 29 46 47"/>
    </vehicle>
    <vehicle id="112" depart="38.33">
        <route edges="48 57 22 53 34 29 28"/>
    </vehicle>
    <vehicle id="113" depart="38.67">
        <route edges="3 20 50 22 53 34 17"/>
    </vehicle>
    <vehicle id="114" depart="39.00">
        <route edges="57 51 21 71 7"/>
    </vehicle>
    <vehicle id="115" depart="39.33">
        <route edges="28 19 52"/>
    </vehicle>
    <vehicle id="116" depart="39.67">
        <route edges="10 23 51 21 71"/>
    </vehicle>
    <vehicle id="117" depart="40.00">
        <route edges="7 13 32 40 52"/>
    </vehicle>
    <vehicle id="118" depart="40.33">
        <route edges="37 64 7 13"/>
    </vehicle>
    <vehicle id="119" depart="40.67">
        <route edges="34 17 43 68"/>
    </vehicle>
    <vehicle id="120" depart="41.00">
        <route edges="68 43 63 12"/>
    </vehicle>
    <vehicle id="121" depart="41.33">
        <route edges="6 58 20 48"/>
    </vehicle>
    <vehicle id="122" depart="41.67">
        <route edges="63 12 6 7"/>
    </vehicle>
    <vehicle id="123" depart="42.00">
        <route edges="6 58 20 50 51"/>
    </vehicle>
    <vehicle id="124" depart="42.33">
        <route edges="64 7 13 62 68 5 28"/>
    </vehicle>
    <vehicle id="125" depart="42.67">
        <route edges="4 43 63 12 6 7"/>
    </vehicle>
    <vehicle id="126" depart="43.00">
        <route edges="16 17 43 63 12"/>
    </vehicle>
    <vehicle id="127" depart="43.33">
        <route edges="27 13 62 68 16"/>
    </vehicle>
    <vehicle id="128" depart="43.67">
        <route edges="40 52 23 51 48 37"/>
    </vehicle>
    <vehicle id="129" depart="44.00">
        <route edges="52 23 51 21 71 58"/>
    </vehicle>
    <vehicle id="130" depart="44.33">
        <route edges="29 4 43 63 12 60"/>
    </vehicle>
    <vehicle id="131" depart="44.67">
        <route edges="37 64 7 6"/>
    </vehicle>
    <vehicle id="132" depart="45.00">
        <route edges="57 22 53 34"/>
    </vehicle>
    <vehicle id="133" depart="45.33">
        <route edges="30 37 64 7 6"/>
    </vehicle>
    <vehicle id="134" depart="45.67">
        <route edges="7 13"/>
    </vehicle>
    <vehicle id="135" depart="46.00">
        <route edges="13 62 68 16 17"/>
    </vehicle>
    <vehicle id="136" depart="46.33">
        <route edges="39 12 6 58 71"/>
    </vehicle>
    <vehicle id="137" depart="46.67">
        <route edges="19 34 17"/>
    </vehicle>
    <vehicle id="138" depart="47.00">
        <route edges="34 17 43 63"/>
    </vehicle>
    <vehicle id="139" depart="47.33">
        <route edges="21 20 50 30"/>
    </vehicle>
    <vehicle id="140" depart="47.67">
        <route edges="36 37 64 14"/>
    </vehicle>
    <vehicle id="141" depart="48.00">
        <route edges="28 17 43 63"/>
    </vehicle>
    <vehicle id="142" depart="48.33">
        <route edges="32 39 12"/>
    </vehicle>
    <vehicle id="143" depart="48.67">
        <route edges="50 22"/>
    </vehicle>
    <vehicle id="144" depart="49.00">
        <route edges="39 62 66"/>
    </vehicle>
    <vehicle id="145" depart="49.33">
        <route edges="60 27 6 14 36 57"/>
    </vehicle>
    <vehicle id="146" depart="49.67">
        <route edges="21 71 7 13 62 66"/>
    </vehicle>
    <vehicle id="147" depart="50.00">
        <route edges="10 23 51 21 71 14"/>
    </vehicle>
    <vehicle id="148" depart="50.33">
        <route edges="20 21 71 7 13 62 66"/>
    </vehicle>
    <vehicle id="149" depart="50.67">
        <route edges="37 3"/>
    </vehicle>
    <vehicle id="150" depart="51.00">
        <route edges="10 23 51 48 57"/>
    </vehicle>
    <vehicle id="151" depart="51.33">
        <route edges="32 40 52 23 51 50"/>
    </vehicle>
    <vehicle id="152" depart="51.67">
        <route edges="55 3 20 50 30"/>
    </vehicle>
    <vehicle id="153" depart="52.00">
        <route edges="57 22 53 41 67 66"/>
    </vehicle>
    <vehicle id="154" depart="52.33">
        <route edges="22 23 51 48"/>
    </vehicle>
    <vehicle id="155" depart="52.67">
        <route edges="48 57 22 53 41 39"/>
    </vehicle>
    <vehicle id="156" depart="53.00">
        <route edges="7 6 58 20 50"/>
    </vehicle>
    <vehicle id="157" depart="53.33">
        <route edges="3 71 7 13 -gneE6"/>
    </vehicle>
    <vehicle id="158" depart="53.67">
        <route edges="64 7 gneE6"/>
    </vehicle>
    <vehicle id="159" depart="54.00">
        <route edges="71 7 13 32 39"/>
    </vehicle>
    <vehicle id="160" depart="54.33">
        <route edges="62 63 12 13"/>
    </vehicle>
    <vehicle id="161" depart="54.67">
        <route edges="57 51 21 71 7 60"/>
    </vehicle>
    <vehicle id="162" depart="55.00">
        <route edges="7 6 14 3"/>
    </vehicle>
    <vehicle id="163" depart="55.33">
        <route edges="20 21 71 14"/>
    </vehicle>
    <vehicle id="164" depart="55.67">
        <route edges="49 48 57"/>
    </vehicle>
    <vehicle id="165" depart="56.00">
        <route edges="20 21 71 7 13 62 68"/>
    </vehicle>
    <vehicle id="166" depart="56.33">
        <route edges="40 52 23 51"/>
    </vehicle>
    <vehicle id="167" depart="56.67">
        <route edges="40 41 67 68"/>
    </vehicle>
    <vehicle id="168" depart="57.00">
        <route edges="53 41 39 12 60"/>
    </vehicle>
    <vehicle id="169" depart="57.33">
        <route edges="6 7 13 62 68 16"/>
    </vehicle>
    <vehicle id="170" depart="57.67">
        <route edges="71"/>
    </vehicle>
    <vehicle id="171" depart="58.00">
        <route edges="40"/>
    </vehicle>
    <vehicle id="172" depart="58.33">
        <route edges="40 34 29 4"/>
    </vehicle>
    <vehicle id="173" depart="58.67">
        <route edges="46 47 28 19 52 23 51"/>
    </vehicle>
    <vehicle id="174" depart="59.00">
        <route edges="32 39 12 6 7"/>
    </vehicle>
    <vehicle id="175" depart="59.33">
        <route edges="47 4 43 63 12"/>
    </vehicle>
    <vehicle id="176" depart="59.67">
        <route edges="71 7 13 12"/>
    </vehicle>
    <vehicle id="177" depart="60.00">
        <route edges="4 43 63 12 6 14 36 37"/>
    </vehicle>
    <vehicle id="178" depart="60.33">
        <route edges="3 71 7 13 27"/>
    </vehicle>
    <vehicle id="179" depart="60.67">
        <route edges="47 28 29"/>
    </vehicle>
    <vehicle id="180" depart="61.00">
        <route edges="53 41 39 12 60"/>
    </vehicle>
    <vehicle id="181" depart="61.33">
        <route edges="5 28 19 52 23 51 48 49"/>
    </vehicle>
    <vehicle id="182" depart="61.67">
        <route edges="57 22 53 41 39 62"/>
    </vehicle>
    <vehicle id="183" depart="62.00">
        <route edges="32 67"/>
    </vehicle>
    <vehicle id="184" depart="62.33">
        <route edges="68 43 63 12 6"/>
    </vehicle>
    <vehicle id="185" depart="62.67">
        <route edges="41"/>
    </vehicle>
    <vehicle id="186" depart="63.00">
        <route edges="39 32 40 52 23 51"/>
    </vehicle>
    <vehicle id="187" depart="63.33">
        <route edges="gneE6 27 6 58 71"/>
    </vehicle>
    <vehicle id="188" depart="63.67">
        <route edges="51 50"/>
    </vehicle>
    <vehicle id="189" depart="64.00">
        <route edges="50 22 53 34 17 43"/>
    </vehicle>
    <vehicle id="190" depart="64.33">
        <route edges="21 71 7 6"/>
    </vehicle>
    <vehicle id="191" depart="64.67">
        <route edges="14 64 7 13 62 68"/>
    </vehicle>
    <vehicle id="192" depart="65.00">
        <route edges="45 10 53 41 39 32"/>
    </vehicle>
    <vehicle id="193" depart="65.33">
        <route edges="4 43 63 12 60"/>
    </vehicle>
    <vehicle id="194" depart="65.67">
        <route edges="63 62 66 67"/>
    </vehicle>
    <vehicle id="195" depart="66.00">
        <route edges="47 4 43 63 32"/>
    </vehicle>
    <vehicle id="196" depart="66.33">
        <route edges="7 13 62"/>
    </vehicle>
    <vehicle id="197" depart="66.67">
        <route edges="51 21 71 58"/>
    </vehicle>
    <vehicle id="198" depart="67.00">
        <route edges="17 16 19 52 23 51 50"/>
    </vehicle>
    <vehicle id="199" depart="67.33">
        <route edges="27 13 62 68 16 29"/>
    </vehicle>
    <vehicle id="200" depart="67.67">
        <route edges="53 41 39"/>
    </vehicle>
    <vehicle id="201" depart="68.00">
        <route edges="23"/>
    </vehicle>
    <vehicle id="202" depart="68.33">
        <route edges="51 21 71 7 13 -gneE6"/>
    </vehicle>
    <vehicle id="203" depart="68.67">
        <route edges="-gneE6 6 14 36 57"/>
    </vehicle>
    <vehicle id="204" depart="69.00">
        <route edges="71 58 55"/>
    </vehicle>
    <vehicle id="205" depart="69.33">
        <route edges="51 50 22 53 41 67"/>
    </vehicle>
    <vehicle id="206" depart="69.67">
        <route edges="19 52 23 51 48"/>
    </vehicle>
    <vehicle id="207" depart="70.00">
        <route edges="23 22 53 34"/>
    </vehicle>
    <vehicle id="208" depart="70.33">
        <route edges="58 20 50 22 45 10"/>
    </vehicle>
    <vehicle id="209" depart="70.67">
        <route edges="gneE6 27"/>
    </vehicle>
    <vehicle id="210" depart="71.00">
        <route edges="32 40 52 53"/>
    </vehicle>
    <vehicle id="211" depart="71.33">
        <route edges="62 66 40 52 23 51"/>
    </vehicle>
    <vehicle id="212" depart="71.67">
        <route edges="55 64 7 60"/>
    </vehicle>
    <vehicle id="213" depart="72.00">
        <route edges="67 66 40"/>
    </vehicle>
    <vehicle id="214" depart="72.33">
        <route edges="58 71 7 gneE6"/>
    </vehicle>
    <vehicle id="215" depart="72.67">
        <route edges="20 50 22 53 34 29 28"/>
    </vehicle>
    <vehicle id="216" depart="73.00">
        <route edges="60 62 66 40 52 23 22"/>
    </vehicle>
    <vehicle id="217" depart="73.33">
        <route edges="37 64 7 13 62 68 5 4"/>
    </vehicle>
    <vehicle id="218" depart="73.67">
        <route edges="-gneE6 13 62 68 5 4"/>
    </vehicle>
    <vehicle id="219" depart="74.00">
        <route edges="39 32 40 34"/>
    </vehicle>
    <vehicle id="220" depart="74.33">
        <route edges="10 53 41 39 12 6"/>
    </vehicle>
    <vehicle id="221" depart="74.67">
        <route edges="40 52"/>
    </vehicle>
    <vehicle id="222" depart="75.00">
        <route edges="7 6 58"/>
    </vehicle>
    <vehicle id="223" depart="75.33">
        <route edges="40 41 39 12 6"/>
    </vehicle>
    <vehicle id="224" depart="75.67">
        <route edges="37 3 20 50 22 23"/>
    </vehicle>
    <vehicle id="225" depart="76.00">
        <route edges="67 63"/>
    </vehicle>
    <vehicle id="226" depart="76.33">
        <route edges="16 17"/>
    </vehicle>
    <vehicle id="227" depart="76.67">
        <route edges="41 39 12 13"/>
    </vehicle>
    <vehicle id="228" depart="77.00">
        <route edges="41 40 52 53"/>
    </vehicle>
    <vehicle id="229" depart="77.33">
        <route edges="57 51 21 71 7"/>
    </vehicle>
    <vehicle id="230" depart="77.67">
        <route edges="60 62 66 40"/>
    </vehicle>
    <vehicle id="231" depart="78.00">
        <route edges="52 53 34 29"/>
    </vehicle>
    <vehicle id="232" depart="78.33">
        <route edges="47 4 43 63 12 6 58"/>
    </vehicle>
    <vehicle id="233" depart="78.67">
        <route edges="62 68 16"/>
    </vehicle>
    <vehicle id="234" depart="79.00">
        <route edges="7 13 32 40 41"/>
    </vehicle>
    <vehicle id="235" depart="79.33">
        <route edges="50 22 53"/>
    </vehicle>
    <vehicle id="236" depart="79.67">
        <route edges="43 63 12 6 7"/>
    </vehicle>
    <vehicle id="237" depart="80.00">
        <route edges="49 50 22 23"/>
    </vehicle>
    <vehicle id="238" depart="80.33">
        <route edges="37 3 20 50 22 45 10"/>
    </vehicle>
    <vehicle id="239" depart="80.67">
        <route edges="16 17 43 63 -gneE6"/>
    </vehicle>
    <vehicle id="240" depart="81.00">
        <route edges="67 63 12 6 58 20 48"/>
    </vehicle>
    <vehicle id="241" depart="81.33">
        <route edges="-gneE6 6 14 36 57"/>
    </vehicle>
    <vehicle id="242" depart="81.67">
        <route edges="37 3 71"/>
    </vehicle>
    <vehicle id="243" depart="82.00">
        <route edges="62 63 12 60"/>
    </vehicle>
    <vehicle id="244" depart="82.33">
        <route edges="37 36 49"/>
    </vehicle>
    <vehicle id="245" depart="82.67">
        <route edges="22 53 41 67 68"/>
    </vehicle>
    <vehicle id="246" depart="83.00">
        <route edges="67 63 12 6 58 20 21"/>
    </vehicle>
    <vehicle id="247" depart="83.33">
        <route edges="43 66 40 52 23"/>
    </vehicle>
    <vehicle id="248" depart="83.67">
        <route edges="17 43 66 67"/>
    </vehicle>
    <vehicle id="249" depart="84.00">
        <route edges="39"/>
    </vehicle>
    <vehicle id="250" depart="84.33">
        <route edges="37 64 7 13"/>
    </vehicle>
    <vehicle id="251" depart="84.67">
        <route edges="71 58 20 50 51"/>
    </vehicle>
    <vehicle id="252" depart="85.00">
        <route edges="67 68 16"/>
    </vehicle>
    <vehicle id="253" depart="85.33">
        <route edges="29 28 19 52 23 51 21 71"/>
    </vehicle>
    <vehicle id="254" depart="85.67">
        <route edges="49 21 55 64"/>
    </vehicle>
    <vehicle id="255" depart="86.00">
        <route edges="12 13 62 68 5 46 47"/>
    </vehicle>
    <vehicle id="256" depart="86.33">
        <route edges="49 21 55 64"/>
    </vehicle>
    <vehicle id="257" depart="86.67">
        <route edges="gneE6 62 66 40 52 45 10"/>
    </vehicle>
    <vehicle id="258" depart="87.00">
        <route edges="71 7 13 62 68 43"/>
    </vehicle>
    <vehicle id="259" depart="87.33">
        <route edges="68 5"/>
    </vehicle>
    <vehicle id="260" depart="87.67">
        <route edges="10 23 51 50"/>
    </vehicle>
    <vehicle id="261" depart="88.00">
        <route edges="68 43 63 12 6 14"/>
    </vehicle>
    <vehicle id="262" depart="88.33">
        <route edges="23 51 21 71 7 13"/>
    </vehicle>
    <vehicle id="263" depart="88.67">
        <route edges="19 52 45 10"/>
    </vehicle>
    <vehicle id="264" depart="89.00">
        <route edges="37 3 20 50 22"/>
    </vehicle>
    <vehicle id="265" depart="89.33">
        <route edges="60 62 68 5 28"/>
    </vehicle>
    <vehicle id="266" depart="89.67">
        <route edges="60 27 13"/>
    </vehicle>
    <vehicle id="267" depart="90.00">
        <route edges="5 4 43 68"/>
    </vehicle>
    <vehicle id="268" depart="90.33">
        <route edges="49 50 22 53 34 29 46"/>
    </vehicle>
    <vehicle id="269" depart="90.67">
        <route edges="51 21 71 7 gneE6"/>
    </vehicle>
    <vehicle id="270" depart="91.00">
        <route edges="49"/>
    </vehicle>
    <vehicle id="271" depart="91.33">
        <route edges="41 40 34 17"/>
    </vehicle>
    <vehicle id="272" depart="91.67">
        <route edges="3 71 7 13 62 68 5"/>
    </vehicle>
    <vehicle id="273" depart="92.00">
        <route edges="16 17 43 66"/>
    </vehicle>
    <vehicle id="274" depart="92.33">
        <route edges="-gneE6 6 14 36 49"/>
    </vehicle>
    <vehicle id="275" depart="92.67">
        <route edges="40 41 67"/>
    </vehicle>
    <vehicle id="276" depart="93.00">
        <route edges="55 64"/>
    </vehicle>
    <vehicle id="277" depart="93.33">
        <route edges="29 28 19 52 45 10"/>
    </vehicle>
    <vehicle id="278" depart="93.67">
        <route edges="14 64 7 13 62 68 5 46 47"/>
    </vehicle>
    <vehicle id="279" depart="94.00">
        <route edges="49 21 71 7 13 12"/>
    </vehicle>
    <vehicle id="280" depart="94.33">
        <route edges="36 37 64 7 13 62 68 5"/>
    </vehicle>
    <vehicle id="281" depart="94.67">
        <route edges="67 63 12 6 58 20 21"/>
    </vehicle>
    <vehicle id="282" depart="95.00">
        <route edges="64 14 36 37"/>
    </vehicle>
    <vehicle id="283" depart="95.33">
        <route edges="4 16 19 52 23"/>
    </vehicle>
    <vehicle id="284" depart="95.67">
        <route edges="62 66 40 52 53"/>
    </vehicle>
    <vehicle id="285" depart="96.00">
        <route edges="7 13 62 68 16"/>
    </vehicle>
    <vehicle id="286" depart="96.33">
        <route edges="37 3 71"/>
    </vehicle>
    <vehicle id="287" depart="96.67">
        <route edges="36 37 64 7"/>
    </vehicle>
    <vehicle id="288" depart="97.00">
        <route edges="37 3 20 50 22 45"/>
    </vehicle>
    <vehicle id="289" depart="97.33">
        <route edges="49 50 30"/>
    </vehicle>
    <vehicle id="290" depart="97.67">
        <route edges="28 19 52 23 51 21 20"/>
    </vehicle>
    <vehicle id="291" depart="98.00">
        <route edges="67 66 40 41"/>
    </vehicle>
    <vehicle id="292" depart="98.33">
        <route edges="43 68 5 4"/>
    </vehicle>
    <vehicle id="293" depart="98.67">
        <route edges="27 13 62 68 5 46 47"/>
    </vehicle>
    <vehicle id="294" depart="99.00">
        <route edges="16 17 43 63 12 6"/>
    </vehicle>
    <vehicle id="295" depart="99.33">
        <route edges="gneE6 62 68 16"/>
    </vehicle>
    <vehicle id="296" depart="99.67">
        <route edges="46 47 28 19 52 23 51 48 49"/>
    </vehicle>
    <vehicle id="297" depart="100.00">
        <route edges="57 22 53 41 39 -gneE6"/>
    </vehicle>
    <vehicle id="298" depart="100.33">
        <route edges="29 4 43 63 12 6 14 3"/>
    </vehicle>
    <vehicle id="299" depart="100.67">
        <route edges="62 63 12 13"/>
    </vehicle>
</routes>
