    <configuration>
        <input>
            <net-file value="net-1net.net.xml"/>
            <route-files value="rou250.rou.xml"/>
        </input>
    </configuration>
