<?xml version="1.0" encoding="UTF-8"?>

<!-- generated on 04/09/19 16:18:58 by Eclipse SUMO duarouter Version 1.1.0
<configuration xmlns:xsi="http://www.w3.org/2001/XMLSchema-instance" xsi:noNamespaceSchemaLocation="http://sumo.dlr.de/xsd/duarouterConfiguration.xsd">

    <input>
        <net-file value="net.net.xml"/>
        <route-files value="trips.trips.xml"/>
    </input>

    <output>
        <output-file value="out-15-15-new/./rou100.rou.xml"/>
        <alternatives-output value="out-15-15-new/./rou100.rou.alt.xml"/>
    </output>

    <time>
        <begin value="1.0"/>
        <end value="101.0"/>
    </time>

    <report>
        <no-warnings value="true"/>
        <ignore-errors value="true"/>
        <no-step-log value="true"/>
    </report>

</configuration>
-->

<routes xmlns:xsi="http://www.w3.org/2001/XMLSchema-instance" xsi:noNamespaceSchemaLocation="http://sumo.dlr.de/xsd/routes_file.xsd">
    <vehicle id="0" depart="1.00">
        <route edges="C7C6 C6C5 C5D5 D5D4"/>
    </vehicle>
    <vehicle id="1" depart="2.00">
        <route edges="C8B8 B8B7 B7B6 B6B5 B5B4 B4C4 C4D4 D4E4 E4F4 F4G4 G4H4 H4I4 I4J4 J4K4 K4L4 L4M4 M4N4 N4N3"/>
    </vehicle>
    <vehicle id="2" depart="3.00">
        <route edges="E3F3 F3E3 E3D3 D3C3 C3B3 B3B2 B2B1 B1B15 B15B14 B14B13 B13B12 B12C12 C12D12 D12E12 E12F12 F12G12 G12H12 H12I12 I12J12 J12I12"/>
    </vehicle>
    <vehicle id="3" depart="4.00">
        <route edges="L12M12 M12L12 L12K12 K12J12 J12I12 I12H12 H12G12 G12F12 F12E12 E12D12 D12C12 C12C13 C13C14 C14C15 C15C1 C1C2 C2C3 C3C4 C4D4 D4D5"/>
    </vehicle>
    <vehicle id="4" depart="5.00">
        <route edges="G14G15 G15F15 F15E15 E15D15 D15C15 C15B15 B15B14 B14B13 B13B12 B12B11 B11B10 B10B9 B9B8 B8C8 C8D8 D8E8 E8F8 F8G8 G8H8 H8I8 I8J8 J8K8 K8L8 L8M8 M8N8 N8O8 O8P8 P8O8"/>
    </vehicle>
    <vehicle id="5" depart="6.00">
        <route edges="C5B5 B5B6 B6B7 B7B8 B8B9 B9B10 B10B11 B11C11 C11D11 D11E11 E11F11 F11G11 G11H11 H11I11 I11I10"/>
    </vehicle>
    <vehicle id="6" depart="7.00">
        <route edges="J14J13 J13J12 J12J11 J11K11 K11L11 L11M11 M11L11"/>
    </vehicle>
    <vehicle id="7" depart="8.00">
        <route edges="K8K7 K7K8 K8K9 K9K10 K10K11 K11K12 K12L12 L12M12 M12N12 N12N11"/>
    </vehicle>
    <vehicle id="8" depart="9.00">
        <route edges="I8J8 J8I8 I8I9 I9I10 I10I11 I11I12 I12J12 J12K12 K12L12 L12M12 M12N12 N12M12"/>
    </vehicle>
    <vehicle id="9" depart="10.00">
        <route edges="N14M14 M14L14 L14K14 K14J14 J14I14 I14H14 H14G14 G14F14 F14E14 E14D14 D14C14 C14C15 C15C1 C1C2 C2C3 C3C4 C4C5 C5C6 C6D6 D6E6 E6F6 F6G6 G6H6 H6I6 I6J6 J6K6 K6K5"/>
    </vehicle>
    <vehicle id="10" depart="11.00">
        <route edges="L13M13 M13L13 L13K13 K13J13 J13I13 I13H13 H13G13 G13F13 F13E13 E13D13 D13C13 C13C14 C14C15 C15C1 C1C2 C2C3 C3C4 C4C5 C5D5 D5E5 E5F5 F5G5 G5H5 H5I5 I5J5 J5I5"/>
    </vehicle>
    <vehicle id="11" depart="12.00">
        <route edges="P8P7 P7O7 O7O8 O8O9 O9O10 O10O11 O11O12 O12O11"/>
    </vehicle>
    <vehicle id="12" depart="13.00">
        <route edges="I6J6 J6I6 I6I5 I5I4 I4I3 I3I4"/>
    </vehicle>
    <vehicle id="13" depart="14.00">
        <route edges="F2F1 F1F15 F15F14 F14F13 F13G13 G13H13 H13I13 I13J13 J13K13 K13L13 L13M13 M13N13"/>
    </vehicle>
    <vehicle id="14" depart="15.00">
        <route edges="N1O1 O1N1 N1M1 M1L1 L1L2 L2L3 L3L4"/>
    </vehicle>
    <vehicle id="15" depart="16.00">
        <route edges="D4C4 C4D4 D4E4 E4F4 F4G4 G4H4 H4I4 I4J4 J4J3"/>
    </vehicle>
    <vehicle id="16" depart="17.00">
        <route edges="L3L4 L4K4 K4J4 J4I4 I4H4 H4G4 G4F4 F4F5 F5G5"/>
    </vehicle>
    <vehicle id="17" depart="18.00">
        <route edges="F13F12 F12E12 E12D12 D12C12 C12C13 C13C14 C14C15 C15C1 C1C2 C2C3 C3C2"/>
    </vehicle>
    <vehicle id="18" depart="19.00">
        <route edges="F6G6 G6F6 F6E6 E6D6 D6C6 C6C7 C7C8 C8C9 C9C10 C10C11 C11B11 B11C11"/>
    </vehicle>
    <vehicle id="19" depart="20.00">
        <route edges="G10G11 G11G10 G10H10 H10I10 I10J10 J10K10 K10L10 L10M10 M10L10"/>
    </vehicle>
    <vehicle id="20" depart="21.00">
        <route edges="C7B7 B7B8 B8B9 B9B10 B10B11 B11B12 B12B13 B13C13 C13D13 D13E13 E13F13 F13F12"/>
    </vehicle>
    <vehicle id="21" depart="22.00">
        <route edges="H2H1 H1G1 G1F1 F1E1 E1D1 D1C1 C1C2 C2C3 C3C4 C4C5 C5C6 C6C7 C7D7 D7E7 E7F7 F7G7 G7H7 H7I7 I7J7 J7K7 K7L7 L7M7 M7N7 N7N8"/>
    </vehicle>
    <vehicle id="22" depart="23.00">
        <route edges="C5B5 B5B6 B6C6 C6D6 D6E6 E6F6 F6G6 G6H6 H6I6 I6J6 J6K6"/>
    </vehicle>
    <vehicle id="23" depart="24.00">
        <route edges="N12N13 N13M13 M13L13 L13K13 K13J13 J13I13 I13H13 H13G13 G13F13 F13E13 E13D13 D13C13 C13B13 B13B12 B12B11 B11B10 B10B9 B9B8 B8B7 B7B6 B6C6 C6D6 D6E6 E6F6 F6G6 G6H6 H6I6 I6J6 J6K6 K6L6 L6M6 M6M5"/>
    </vehicle>
    <vehicle id="24" depart="25.00">
        <route edges="G1H1 H1G1 G1F1 F1E1 E1D1 D1C1 C1B1 B1B15 B15B14 B14B13 B13B12"/>
    </vehicle>
    <vehicle id="25" depart="26.00">
        <route edges="K12K11 K11J11 J11I11 I11H11 H11G11 G11F11 F11E11 E11E10 E10E9 E9E8 E8E9"/>
    </vehicle>
    <vehicle id="26" depart="27.00">
        <route edges="P9O9 O9N9 N9M9 M9L9 L9K9 K9J9 J9I9 I9H9 H9G9 G9F9 F9E9 E9D9 D9C9 C9C10 C10C11 C11C12 C12C13 C13C14 C14C15 C15D15 D15E15 E15F15 F15G15 G15H15 H15I15 I15J15 J15K15 K15L15 L15M15 M15N15 N15O15 O15N15"/>
    </vehicle>
    <vehicle id="27" depart="28.00">
        <route edges="O6O7 O7N7 N7M7 M7L7 L7K7 K7J7 J7I7 I7H7 H7G7 G7F7 F7E7 E7D7 D7C7 C7C8 C8C9 C9C10 C10C11 C11C12 C12C13 C13C14 C14D14 D14E14 E14F14 F14G14 G14H14 H14I14 I14J14 J14K14 K14L14 L14K14"/>
    </vehicle>
    <vehicle id="28" depart="29.00">
        <route edges="C11D11 D11C11 C11B11 B11B10 B10B9 B9B8 B8B7 B7B6 B6B5 B5C5 C5D5 D5E5 E5F5 F5G5 G5F5"/>
    </vehicle>
    <vehicle id="29" depart="30.00">
        <route edges="C11C12 C12D12 D12E12 E12F12 F12G12 G12H12 H12I12 I12J12 J12K12 K12L12 L12M12 M12N12 N12O12 O12P12 P12O12"/>
    </vehicle>
    <vehicle id="30" depart="31.00">
        <route edges="K14K13 K13K14 K14K15 K15K1 K1K2 K2L2 L2M2 M2N2 N2O2 O2P2 P2O2"/>
    </vehicle>
    <vehicle id="31" depart="32.00">
        <route edges="O11O12 O12N12 N12M12 M12L12 L12K12 K12J12 J12I12 I12H12 H12G12 G12F12 F12E12 E12D12 D12C12 C12C13 C13C14 C14C15 C15C1 C1C2 C2C3 C3D3 D3E3 E3F3 F3G3 G3H3 H3I3 I3J3 J3K3 K3L3 L3M3 M3N3 N3O3 O3P3 P3P2"/>
    </vehicle>
    <vehicle id="32" depart="33.00">
        <route edges="E4E3 E3E2 E2F2 F2G2 G2H2 H2I2 I2J2 J2K2 K2L2 L2M2 M2N2 N2N3"/>
    </vehicle>
    <vehicle id="33" depart="34.00">
        <route edges="C2D2 D2C2 C2B2 B2B1 B1B15 B15B14 B14B13 B13B12 B12B11 B11C11 C11D11 D11E11"/>
    </vehicle>
    <vehicle id="34" depart="35.00">
        <route edges="J4K4 K4J4 J4I4 I4H4 H4G4 G4F4 F4E4 E4D4 D4C4 C4C5 C5C6 C6C7 C7C8 C8C9 C9C10 C10D10 D10E10 E10F10 F10G10 G10F10"/>
    </vehicle>
    <vehicle id="35" depart="36.00">
        <route edges="N3N4 N4M4 M4L4 L4K4 K4J4 J4I4 I4H4 H4G4 G4F4 F4E4 E4D4 D4C4 C4B4 B4B3 B3B2 B2B1 B1B15 B15B14 B14B13 B13C13 C13D13 D13E13 E13F13 F13G13 G13H13 H13I13 I13J13 J13K13 K13L13 L13M13 M13N13 N13O13 O13N13"/>
    </vehicle>
    <vehicle id="36" depart="37.00">
        <route edges="D4D3 D3C3 C3C4 C4C5 C5C6 C6C7 C7C8 C8C9 C9C10 C10D10 D10E10 E10F10 F10G10 G10H10 H10I10 I10J10 J10K10 K10L10 L10L9"/>
    </vehicle>
    <vehicle id="37" depart="38.00">
        <route edges="N5M5 M5L5 L5K5 K5J5 J5I5 I5H5 H5G5 G5F5 F5E5 E5D5 D5C5 C5C6 C6C7 C7C8 C8C9 C9C10 C10C11 C11D11 D11E11 E11F11 F11G11 G11H11 H11I11 I11J11 J11K11 K11K12"/>
    </vehicle>
    <vehicle id="38" depart="39.00">
        <route edges="M12N12 N12M12 M12L12 L12K12 K12J12 J12J11"/>
    </vehicle>
    <vehicle id="39" depart="40.00">
        <route edges="B5C5 C5B5 B5B6 B6B7 B7B8 B8B9 B9B10 B10B11 B11C11 C11D11 D11E11 E11F11 F11G11 G11H11 H11I11 I11J11 J11K11 K11L11 L11M11 M11N11 N11O11 O11P11"/>
    </vehicle>
    <vehicle id="40" depart="41.00">
        <route edges="E10F10 F10E10 E10D10 D10C10 C10C11 C11C12 C12C13 C13C14 C14C15 C15C1 C1D1 D1C1"/>
    </vehicle>
    <vehicle id="41" depart="42.00">
        <route edges="E5D5 D5D6 D6E6 E6F6 F6G6 G6H6 H6I6 I6J6 J6J7"/>
    </vehicle>
    <vehicle id="42" depart="43.00">
        <route edges="G2F2 F2E2 E2D2 D2C2 C2C3 C3C4 C4C5 C5C6 C6C7 C7C8 C8C9 C9D9 D9E9 E9F9 F9G9 G9H9 H9I9 I9J9 J9K9 K9J9"/>
    </vehicle>
    <vehicle id="43" depart="44.00">
        <route edges="M2L2 L2K2 K2J2 J2I2 I2H2 H2G2 G2F2 F2E2 E2D2 D2D1 D1D15 D15D1"/>
    </vehicle>
    <vehicle id="44" depart="45.00">
        <route edges="D6D7 D7C7 C7B7 B7B6 B6B5 B5B4 B4B3 B3B2 B2B1 B1C1 C1D1 D1E1 E1F1 F1G1 G1H1 H1I1 I1J1 J1K1 K1L1 L1M1 M1M2"/>
    </vehicle>
    <vehicle id="45" depart="46.00">
        <route edges="J9K9 K9J9 J9I9 I9H9 H9G9 G9F9 F9E9 E9D9 D9C9 C9C10 C10C11 C11C12 C12C13 C13C14 C14C15 C15C1 C1B1"/>
    </vehicle>
    <vehicle id="46" depart="47.00">
        <route edges="I8J8 J8I8 I8I7 I7I6 I6I5 I5I4 I4I5"/>
    </vehicle>
    <vehicle id="47" depart="48.00">
        <route edges="D2E2 E2E1 E1F1 F1G1 G1H1 H1I1 I1J1 J1J2"/>
    </vehicle>
    <vehicle id="48" depart="49.00">
        <route edges="L8K8 K8K7 K7K6 K6L6 L6M6 M6N6 N6O6 O6P6 P6P7"/>
    </vehicle>
    <vehicle id="49" depart="50.00">
        <route edges="N8N9 N9N8 N8N7 N7N6 N6N5"/>
    </vehicle>
    <vehicle id="50" depart="51.00">
        <route edges="F2F1 F1F15 F15G15 G15G1"/>
    </vehicle>
    <vehicle id="51" depart="52.00">
        <route edges="F9G9 G9F9 F9E9 E9D9 D9C9 C9B9 B9B8 B8B7 B7B6 B6B5 B5B4 B4B3 B3B2 B2C2 C2D2 D2E2 E2F2 F2G2 G2H2 H2I2 I2I1"/>
    </vehicle>
    <vehicle id="52" depart="53.00">
        <route edges="K10J10 J10I10 I10H10 H10G10 G10F10 F10E10 E10D10 D10C10 C10B10 B10B9 B9B8 B8B7 B7B6 B6B5 B5B4 B4B3 B3C3 C3D3 D3E3 E3F3 F3G3 G3H3 H3I3 I3J3 J3K3 K3L3 L3L4"/>
    </vehicle>
    <vehicle id="53" depart="54.00">
        <route edges="C1D1 D1D2 D2C2"/>
    </vehicle>
    <vehicle id="54" depart="55.00">
        <route edges="F3F4 F4F3 F3G3 G3H3 H3I3 I3J3 J3K3 K3L3 L3M3 M3M2"/>
    </vehicle>
    <vehicle id="55" depart="56.00">
        <route edges="C8B8 B8B7 B7B6 B6B5 B5B4 B4B3 B3B2 B2B1 B1C1 C1D1 D1E1 E1F1 F1G1 G1H1 H1I1 I1J1 J1K1 K1L1 L1M1 M1N1 N1O1 O1O15"/>
    </vehicle>
    <vehicle id="56" depart="57.00">
        <route edges="K6L6 L6K6 K6J6 J6I6 I6H6 H6G6 G6F6 F6E6 E6D6 D6C6 C6B6 B6B5 B5B4 B4B3 B3B2 B2B1 B1B15 B15B14 B14C14 C14D14 D14E14 E14F14 F14G14 G14H14 H14I14 I14J14 J14K14 K14L14 L14M14"/>
    </vehicle>
    <vehicle id="57" depart="58.00">
        <route edges="C12B12 B12B11 B11B10 B10B9 B9C9 C9D9 D9E9 E9F9 F9G9 G9H9 H9G9"/>
    </vehicle>
    <vehicle id="58" depart="59.00">
        <route edges="N9N8 N8M8 M8L8 L8K8 K8J8 J8I8 I8H8 H8G8 G8F8 F8E8 E8D8 D8C8 C8C7 C7C6 C6C5 C5C4 C4D4"/>
    </vehicle>
    <vehicle id="59" depart="60.00">
        <route edges="L13L14 L14L13 L13L12 L12L11 L11M11 M11L11"/>
    </vehicle>
    <vehicle id="60" depart="61.00">
        <route edges="O6N6 N6M6 M6L6 L6K6 K6J6 J6I6 I6H6 H6G6 G6F6 F6E6 E6D6 D6D7 D7D8 D8D9 D9D10 D10D11 D11D12"/>
    </vehicle>
    <vehicle id="61" depart="62.00">
        <route edges="E5D5 D5C5 C5C4 C4C3 C3C2 C2C1 C1C2"/>
    </vehicle>
    <vehicle id="62" depart="63.00">
        <route edges="F14F13 F13F14 F14F15 F15F1 F1F2 F2F3 F3G3 G3H3 H3I3 I3J3 J3I3"/>
    </vehicle>
    <vehicle id="63" depart="64.00">
        <route edges="I8I9 I9H9 H9G9 G9F9 F9G9"/>
    </vehicle>
    <vehicle id="64" depart="65.00">
        <route edges="K4K3 K3K4 K4K5 K5K6 K6K7 K7K8 K8L8 L8M8 M8N8 N8O8 O8P8 P8P7"/>
    </vehicle>
    <vehicle id="65" depart="66.00">
        <route edges="F2E2 E2E3 E3E4 E4E5 E5E6 E6E7 E7F7 F7G7 G7H7 H7I7 I7J7 J7K7 K7L7 L7M7 M7N7"/>
    </vehicle>
    <vehicle id="66" depart="67.00">
        <route edges="O13N13 N13O13 O13O12 O12O11"/>
    </vehicle>
    <vehicle id="67" depart="68.00">
        <route edges="M5M6 M6L6 L6K6 K6J6 J6I6 I6H6 H6G6 G6F6 F6E6 E6D6 D6C6 C6C7 C7C8 C8C9 C9C10 C10C11 C11C12 C12D12 D12E12 E12F12 F12G12 G12H12 H12I12 I12J12 J12K12 K12L12 L12M12 M12M11"/>
    </vehicle>
    <vehicle id="68" depart="69.00">
        <route edges="I1I2 I2H2 H2G2 G2F2 F2E2 E2D2 D2C2 C2C3 C3C4 C4C5 C5C6 C6C7 C7C8 C8C9 C9D9 D9E9 E9F9 F9G9 G9H9 H9I9 I9J9 J9K9 K9L9 L9M9 M9N9 N9O9 O9P9 P9O9"/>
    </vehicle>
    <vehicle id="69" depart="70.00">
        <route edges="E10F10 F10E10 E10D10 D10C10 C10B10"/>
    </vehicle>
    <vehicle id="70" depart="71.00">
        <route edges="C14C13 C13D13 D13E13 E13D13"/>
    </vehicle>
    <vehicle id="71" depart="72.00">
        <route edges="M4L4 L4K4 K4J4 J4I4 I4H4 H4G4 G4G3 G3G2 G2G1 G1G15 G15F15"/>
    </vehicle>
    <vehicle id="72" depart="73.00">
        <route edges="G5F5 F5E5 E5D5 D5C5 C5C6 C6C7 C7C8 C8C9 C9C10 C10C11 C11D11 D11E11 E11F11 F11G11 G11H11 H11I11 I11J11 J11K11 K11L11 L11M11 M11N11 N11O11 O11N11"/>
    </vehicle>
    <vehicle id="73" depart="74.00">
        <route edges="L7K7 K7J7 J7I7 I7H7 H7G7 G7F7 F7E7 E7D7 D7C7 C7C8 C8C9 C9C10 C10C11 C11C12 C12B12 B12B11"/>
    </vehicle>
    <vehicle id="74" depart="75.00">
        <route edges="D8E8 E8E7 E7E6 E6E5 E5E4 E4E3 E3F3"/>
    </vehicle>
    <vehicle id="75" depart="76.00">
        <route edges="F10F11 F11F12 F12F13 F13G13 G13H13 H13H12"/>
    </vehicle>
    <vehicle id="76" depart="77.00">
        <route edges="M7M8 M8L8 L8K8 K8J8 J8I8 I8H8 H8G8 G8F8 F8F9 F9F10 F10F11 F11F12 F12F11"/>
    </vehicle>
    <vehicle id="77" depart="78.00">
        <route edges="L10L11 L11K11 K11J11 J11I11 I11H11 H11G11 G11F11 F11E11 E11D11 D11C11 C11C12 C12C13 C13C14 C14C15 C15C1 C1C2 C2C3 C3D3 D3E3 E3F3 F3F2"/>
    </vehicle>
    <vehicle id="78" depart="79.00">
        <route edges="B3C3 C3B3 B3B2 B2B1 B1B15 B15B14 B14B13 B13B12 B12B11 B11C11 C11D11 D11E11 E11F11 F11G11 G11H11 H11I11 I11J11 J11K11 K11L11 L11L10"/>
    </vehicle>
    <vehicle id="79" depart="80.00">
        <route edges="C5C4 C4C5 C5C6 C6C7 C7C8 C8D8 D8E8 E8F8 F8G8 G8H8"/>
    </vehicle>
    <vehicle id="80" depart="81.00">
        <route edges="K2K3 K3J3 J3I3 I3H3 H3H4 H4H5 H5H6 H6H7 H7H8 H8I8"/>
    </vehicle>
    <vehicle id="81" depart="82.00">
        <route edges="O10P10 P10O10 O10N10 N10M10 M10L10 L10K10 K10J10 J10I10 I10H10 H10G10 G10F10 F10E10 E10D10 D10C10 C10B10 B10B9 B9B8 B8B7 B7B6 B6B5 B5B4 B4B3 B3B2 B2B1 B1C1"/>
    </vehicle>
    <vehicle id="82" depart="83.00">
        <route edges="D7E7 E7E8 E8F8 F8G8 G8H8 H8I8 I8J8 J8K8"/>
    </vehicle>
    <vehicle id="83" depart="84.00">
        <route edges="L15L1 L1L2 L2L3 L3L4 L4L5 L5L6 L6K6"/>
    </vehicle>
    <vehicle id="84" depart="85.00">
        <route edges="G14G15 G15F15 F15E15 E15D15 D15C15 C15C1 C1C2 C2C3 C3C4 C4C5 C5B5"/>
    </vehicle>
    <vehicle id="85" depart="86.00">
        <route edges="I13I14 I14I15 I15J15 J15K15 K15L15 L15M15"/>
    </vehicle>
    <vehicle id="86" depart="87.00">
        <route edges="O7O6 O6N6 N6M6 M6L6 L6K6 K6J6 J6I6 I6H6 H6G6 G6F6 F6F5 F5F4 F4F3 F3F2"/>
    </vehicle>
    <vehicle id="87" depart="88.00">
        <route edges="I8J8 J8I8 I8H8 H8G8 G8F8 F8E8 E8D8 D8D9 D9D10 D10D9"/>
    </vehicle>
    <vehicle id="88" depart="89.00">
        <route edges="J13I13 I13H13 H13H12 H12H11 H11H10 H10H9"/>
    </vehicle>
    <vehicle id="89" depart="90.00">
        <route edges="M10M9 M9L9 L9K9 K9J9 J9I9 I9H9 H9G9 G9F9 F9E9 E9E10 E10E11 E11E12 E12F12"/>
    </vehicle>
    <vehicle id="90" depart="91.00">
        <route edges="O11P11 P11O11 O11N11 N11M11 M11L11 L11K11 K11J11 J11I11 I11H11 H11G11 G11F11 F11E11 E11D11 D11C11 C11C12 C12C13 C13C14 C14C15 C15C1 C1C2 C2D2 D2E2 E2F2 F2G2"/>
    </vehicle>
    <vehicle id="91" depart="92.00">
        <route edges="K8L8 L8K8 K8J8 J8I8 I8H8 H8G8 G8F8 F8E8 E8D8 D8C8 C8C9 C9C10 C10C11 C11C12 C12C13 C13C14 C14C15 C15D15 D15E15 E15F15 F15G15 G15H15 H15I15 I15J15 J15K15 K15L15 L15M15 M15N15 N15O15 O15O1"/>
    </vehicle>
    <vehicle id="92" depart="93.00">
        <route edges="N8M8 M8M7 M7M6 M6L6"/>
    </vehicle>
    <vehicle id="93" depart="94.00">
        <route edges="O14P14 P14O14 O14N14 N14M14 M14L14 L14K14 K14J14 J14J13 J13J12 J12J11 J11K11"/>
    </vehicle>
    <vehicle id="94" depart="95.00">
        <route edges="G8G7 G7F7 F7E7 E7D7 D7C7 C7B7 B7B6 B6B5 B5B4 B4B3 B3B2 B2B1 B1B15 B15C15 C15D15 D15E15 E15F15 F15G15 G15H15 H15I15 I15J15 J15K15 K15L15 L15M15 M15N15"/>
    </vehicle>
    <vehicle id="95" depart="96.00">
        <route edges="M12M13 M13M14 M14M15 M15M1 M1N1 N1O1 O1P1 P1O1"/>
    </vehicle>
    <vehicle id="96" depart="97.00">
        <route edges="B9C9 C9C8 C8C7 C7C6 C6C5 C5C4 C4D4 D4E4 E4F4 F4G4 G4H4 H4I4 I4J4 J4K4 K4L4 L4M4 M4M5"/>
    </vehicle>
    <vehicle id="97" depart="98.00">
        <route edges="N15N14 N14M14 M14L14 L14K14 K14J14 J14I14 I14H14 H14G14 G14F14 F14E14 E14D14 D14C14 C14B14 B14B13 B13B12 B12B11 B11B10 B10B9 B9B8 B8C8 C8D8 D8E8 E8F8 F8G8 G8H8 H8I8 I8J8"/>
    </vehicle>
    <vehicle id="98" depart="99.00">
        <route edges="H3I3 I3H3 H3G3 G3G2 G2H2"/>
    </vehicle>
    <vehicle id="99" depart="100.00">
        <route edges="P15P14 P14O14 O14N14 N14N13 N13N12 N12N11 N11N10"/>
    </vehicle>
</routes>
