<?xml version="1.0" encoding="UTF-8"?>

<!-- generated on 04/09/19 16:19:14 by Eclipse SUMO duarouter Version 1.1.0
<configuration xmlns:xsi="http://www.w3.org/2001/XMLSchema-instance" xsi:noNamespaceSchemaLocation="http://sumo.dlr.de/xsd/duarouterConfiguration.xsd">

    <input>
        <net-file value="net.net.xml"/>
        <route-files value="trips.trips.xml"/>
    </input>

    <output>
        <output-file value="out-15-15-new/./rou3000.rou.xml"/>
        <alternatives-output value="out-15-15-new/./rou3000.rou.alt.xml"/>
    </output>

    <time>
        <begin value="1.0"/>
        <end value="101.0"/>
    </time>

    <report>
        <no-warnings value="true"/>
        <ignore-errors value="true"/>
        <no-step-log value="true"/>
    </report>

</configuration>
-->

<routes xmlns:xsi="http://www.w3.org/2001/XMLSchema-instance" xsi:noNamespaceSchemaLocation="http://sumo.dlr.de/xsd/routes_file.xsd">
    <vehicle id="0" depart="1.00">
        <route edges="D1C1 C1C2 C2D2 D2E2 E2E1"/>
    </vehicle>
    <vehicle id="1" depart="1.03">
        <route edges="D3E3 E3E4 E4F4 F4G4 G4H4 H4I4 I4I5"/>
    </vehicle>
    <vehicle id="2" depart="1.07">
        <route edges="K14K15 K15J15 J15I15 I15I1 I1I2 I2I3 I3I4"/>
    </vehicle>
    <vehicle id="3" depart="1.10">
        <route edges="K8L8 L8K8 K8J8 J8I8 I8H8 H8G8 G8F8 F8F9 F9F10 F10F11 F11F12 F12F13 F13F12"/>
    </vehicle>
    <vehicle id="4" depart="1.13">
        <route edges="B11B10 B10B11 B11B12 B12B13 B13B14 B14B15 B15B1 B1B2 B2C2 C2B2"/>
    </vehicle>
    <vehicle id="5" depart="1.17">
        <route edges="B2B3 B3B4 B4B5 B5B6 B6B7 B7B8 B8B9 B9C9 C9D9 D9E9 E9F9 F9G9 G9H9 H9I9 I9J9 J9K9"/>
    </vehicle>
    <vehicle id="6" depart="1.20">
        <route edges="N12O12 O12N12 N12M12 M12L12 L12K12 K12J12 J12I12 I12H12 H12G12 G12F12 F12E12 E12D12 D12C12 C12B12 B12B11 B11B10 B10B9 B9B8 B8B7 B7B6 B6C6 C6D6 D6E6 E6F6 F6F5"/>
    </vehicle>
    <vehicle id="7" depart="1.23">
        <route edges="J12K12 K12K11 K11L11"/>
    </vehicle>
    <vehicle id="8" depart="1.27">
        <route edges="M13L13 L13L12 L12L11 L11L10 L10L9 L9M9 M9N9 N9O9 O9P9 P9P10"/>
    </vehicle>
    <vehicle id="9" depart="1.30">
        <route edges="G7H7 H7H8 H8I8 I8J8 J8J9"/>
    </vehicle>
    <vehicle id="10" depart="1.33">
        <route edges="H9H10 H10H9 H9H8 H8I8 I8J8 J8K8 K8L8 L8M8 M8N8 N8O8 O8P8 P8O8"/>
    </vehicle>
    <vehicle id="11" depart="1.37">
        <route edges="F10F9 F9E9 E9D9 D9C9 C9B9 B9B8 B8B7 B7B6 B6B5 B5B4 B4B3 B3B2 B2C2 C2D2 D2E2 E2F2 F2G2 G2H2 H2I2 I2J2 J2K2 K2L2 L2L1"/>
    </vehicle>
    <vehicle id="12" depart="1.40">
        <route edges="K7L7 L7K7 K7J7 J7I7 I7I8 I8I7"/>
    </vehicle>
    <vehicle id="13" depart="1.43">
        <route edges="M2N2 N2M2 M2L2 L2K2 K2J2 J2I2 I2H2 H2G2 G2F2 F2E2 E2D2 D2C2 C2C3 C3C4 C4C5 C5C6 C6C7 C7C8 C8D8 D8E8 E8E7"/>
    </vehicle>
    <vehicle id="14" depart="1.47">
        <route edges="D5C5 C5C6 C6D6 D6E6 E6F6 F6G6 G6H6 H6I6 I6J6 J6K6 K6L6 L6M6 M6N6 N6O6 O6P6"/>
    </vehicle>
    <vehicle id="15" depart="1.50">
        <route edges="J14I14 I14I13 I13I12 I12I11 I11I10 I10J10 J10J9"/>
    </vehicle>
    <vehicle id="16" depart="1.53">
        <route edges="G11H11 H11G11 G11F11 F11E11 E11D11 D11C11 C11C12 C12C13 C13C14 C14C15 C15C1 C1C2 C2C3 C3D3 D3E3 E3F3 F3G3 G3H3 H3I3 I3J3 J3K3 K3L3 L3M3 M3N3 N3N4"/>
    </vehicle>
    <vehicle id="17" depart="1.57">
        <route edges="E9F9 F9E9 E9D9 D9D8 D8D7 D7D6 D6D5"/>
    </vehicle>
    <vehicle id="18" depart="1.60">
        <route edges="J7J6 J6I6 I6H6 H6G6 G6F6 F6E6 E6D6 D6D7 D7D8 D8D9 D9D10 D10D11 D11E11"/>
    </vehicle>
    <vehicle id="19" depart="1.63">
        <route edges="F13G13 G13F13 F13E13 E13D13 D13D14 D14D15 D15D1 D1D2"/>
    </vehicle>
    <vehicle id="20" depart="1.67">
        <route edges="J12I12 I12J12 J12J11 J11K11"/>
    </vehicle>
    <vehicle id="21" depart="1.70">
        <route edges="P9P10 P10P9 P9O9 O9O8 O8O7 O7O6 O6N6"/>
    </vehicle>
    <vehicle id="22" depart="1.73">
        <route edges="C8C9 C9C8"/>
    </vehicle>
    <vehicle id="23" depart="1.77">
        <route edges="H6G6 G6H6 H6H5 H5H4"/>
    </vehicle>
    <vehicle id="24" depart="1.80">
        <route edges="J15I15 I15I1 I1I2 I2I3 I3J3 J3K3 K3L3 L3M3"/>
    </vehicle>
    <vehicle id="25" depart="1.83">
        <route edges="K15L15 L15L14 L14L13 L13L12 L12L11 L11L12"/>
    </vehicle>
    <vehicle id="26" depart="1.87">
        <route edges="C4C3 C3C2 C2C1 C1D1 D1E1 E1F1 F1G1 G1H1 H1I1 I1J1 J1J15"/>
    </vehicle>
    <vehicle id="27" depart="1.90">
        <route edges="D13C13 C13C14 C14C15 C15C1 C1C2 C2D2 D2E2 E2F2 F2G2 G2G1"/>
    </vehicle>
    <vehicle id="28" depart="1.93">
        <route edges="E10F10 F10E10 E10D10 D10C10 C10C11 C11C12 C12C13 C13C14 C14C15 C15C1 C1D1 D1E1 E1F1 F1G1 G1H1 H1I1 I1J1 J1K1 K1L1 L1M1 M1N1 N1O1 O1P1"/>
    </vehicle>
    <vehicle id="29" depart="1.97">
        <route edges="O1O15 O15N15 N15M15 M15L15 L15K15 K15J15 J15I15 I15H15 H15G15 G15F15 F15E15 E15D15 D15D14 D14D13 D13D12 D12D11 D11E11"/>
    </vehicle>
    <vehicle id="30" depart="2.00">
        <route edges="F9F10 F10E10 E10D10 D10C10 C10C11 C11C12 C12C13 C13C14 C14C15 C15C1 C1C2 C2D2 D2E2 E2F2 F2F3"/>
    </vehicle>
    <vehicle id="31" depart="2.03">
        <route edges="C8C9 C9C8 C8C7 C7C6 C6D6 D6E6 E6F6"/>
    </vehicle>
    <vehicle id="32" depart="2.07">
        <route edges="L1M1 M1L1 L1K1 K1J1 J1I1 I1H1 H1G1 G1F1 F1F15 F15F14 F14F13 F13F12 F12F11"/>
    </vehicle>
    <vehicle id="33" depart="2.10">
        <route edges="C11C10 C10C11 C11C12 C12D12 D12E12 E12F12 F12G12 G12H12 H12I12 I12J12 J12I12"/>
    </vehicle>
    <vehicle id="34" depart="2.13">
        <route edges="J2K2 K2J2 J2I2 I2I3 I3H3"/>
    </vehicle>
    <vehicle id="35" depart="2.17">
        <route edges="M9M10 M10L10 L10K10 K10J10 J10I10 I10I9 I9I8 I8I7 I7I6 I6I7"/>
    </vehicle>
    <vehicle id="36" depart="2.20">
        <route edges="H7H8 H8G8 G8H8"/>
    </vehicle>
    <vehicle id="37" depart="2.23">
        <route edges="L13L14 L14K14 K14J14 J14I14 I14H14 H14G14 G14F14 F14E14 E14D14 D14C14 C14C15 C15C1 C1C2 C2C3 C3C4 C4C5 C5D5 D5E5 E5F5 F5G5 G5H5 H5I5 I5J5 J5K5"/>
    </vehicle>
    <vehicle id="38" depart="2.27">
        <route edges="O1N1 N1M1 M1L1 L1K1 K1J1 J1I1 I1H1 H1H2 H2H3 H3H4 H4H5"/>
    </vehicle>
    <vehicle id="39" depart="2.30">
        <route edges="L8K8 K8J8 J8I8 I8H8 H8G8 G8F8 F8E8 E8D8 D8C8 C8B8 B8B7 B7B6 B6B5 B5B4 B4B3 B3B2 B2C2 C2D2 D2E2 E2F2 F2G2 G2H2 H2I2 I2J2 J2K2 K2K1"/>
    </vehicle>
    <vehicle id="40" depart="2.33">
        <route edges="D5E5 E5E4 E4E3 E3E2 E2E1 E1F1 F1G1 G1H1 H1I1 I1J1 J1K1 K1L1 L1M1 M1M15"/>
    </vehicle>
    <vehicle id="41" depart="2.37">
        <route edges="D1D2 D2E2 E2F2 F2G2 G2H2 H2H1"/>
    </vehicle>
    <vehicle id="42" depart="2.40">
        <route edges="N11N12 N12M12 M12L12 L12K12 K12J12 J12I12 I12H12 H12G12 G12F12 F12E12 E12D12 D12C12 C12B12 B12B11 B11B10 B10B9 B9B8 B8B7 B7B6 B6C6 C6D6 D6E6 E6F6 F6G6 G6H6 H6I6 I6J6 J6K6 K6L6 L6M6 M6N6 N6O6 O6O5"/>
    </vehicle>
    <vehicle id="43" depart="2.43">
        <route edges="C6B6 B6B7 B7C7 C7D7"/>
    </vehicle>
    <vehicle id="44" depart="2.47">
        <route edges="D11E11 E11E12 E12F12 F12G12 G12H12 H12I12 I12J12 J12K12 K12L12 L12M12 M12N12 N12O12 O12O13"/>
    </vehicle>
    <vehicle id="45" depart="2.50">
        <route edges="B6B5 B5B6 B6B7 B7B8 B8B9 B9B10 B10B11 B11B12 B12B13 B13C13 C13D13 D13E13 E13E14"/>
    </vehicle>
    <vehicle id="46" depart="2.53">
        <route edges="G8H8 H8G8 G8F8 F8E8 E8D8 D8C8 C8B8 B8B7 B7B6 B6B5 B5B4 B4B3 B3B2 B2C2 C2D2 D2E2 E2F2 F2G2 G2H2 H2I2 I2J2 J2K2 K2L2 L2M2 M2M3"/>
    </vehicle>
    <vehicle id="47" depart="2.57">
        <route edges="J10J9 J9I9 I9H9 H9G9 G9F9 F9E9 E9D9 D9C9 C9C10 C10C11 C11C12 C12C13 C13C14 C14C15 C15D15 D15D14"/>
    </vehicle>
    <vehicle id="48" depart="2.60">
        <route edges="K11L11 L11K11 K11J11 J11I11 I11I10 I10I9 I9I8 I8I7 I7I6 I6J6"/>
    </vehicle>
    <vehicle id="49" depart="2.63">
        <route edges="B13B14 B14B13 B13B12 B12B11 B11C11 C11D11 D11E11 E11F11 F11G11 G11H11 H11I11 I11J11 J11J10"/>
    </vehicle>
    <vehicle id="50" depart="2.67">
        <route edges="M12M11 M11M12 M12M13 M13N13 N13O13 O13P13 P13P12"/>
    </vehicle>
    <vehicle id="51" depart="2.70">
        <route edges="D2D3 D3D2 D2E2 E2F2 F2G2 G2H2 H2I2 I2J2 J2K2 K2L2 L2M2 M2N2 N2N3"/>
    </vehicle>
    <vehicle id="52" depart="2.73">
        <route edges="N6N7 N7N8 N8N9 N9N10 N10N11 N11N12 N12O12"/>
    </vehicle>
    <vehicle id="53" depart="2.77">
        <route edges="F8F7 F7G7 G7F7"/>
    </vehicle>
    <vehicle id="54" depart="2.80">
        <route edges="D2D1 D1C1 C1B1 B1B15 B15B14 B14B13 B13B12 B12B11 B11B10 B10B9 B9C9 C9D9 D9E9 E9F9 F9G9 G9H9 H9I9 I9J9 J9K9 K9L9 L9M9"/>
    </vehicle>
    <vehicle id="55" depart="2.83">
        <route edges="C1C2 C2C3 C3D3 D3E3 E3F3 F3G3 G3H3 H3I3 I3J3 J3K3 K3L3 L3M3 M3L3"/>
    </vehicle>
    <vehicle id="56" depart="2.87">
        <route edges="K15K1 K1K2 K2K3 K3L3 L3L2"/>
    </vehicle>
    <vehicle id="57" depart="2.90">
        <route edges="P2P1 P1O1 O1N1 N1M1 M1L1 L1L15 L15L14"/>
    </vehicle>
    <vehicle id="58" depart="2.93">
        <route edges="E7E8 E8E9 E9F9 F9G9 G9H9 H9I9 I9J9 J9K9 K9L9 L9M9 M9M10"/>
    </vehicle>
    <vehicle id="59" depart="2.97">
        <route edges="D3E3 E3E2 E2E1 E1F1 F1G1 G1H1 H1I1 I1J1 J1K1 K1L1 L1M1 M1N1 N1O1 O1P1 P1O1"/>
    </vehicle>
    <vehicle id="60" depart="3.00">
        <route edges="G4H4 H4G4 G4G5 G5G6 G6G7 G7G8 G8G9 G9H9 H9I9 I9I8"/>
    </vehicle>
    <vehicle id="61" depart="3.03">
        <route edges="P2P3 P3O3 O3N3 N3M3 M3L3 L3K3 K3J3 J3I3 I3H3 H3G3 G3G2 G2G1 G1G15 G15G14 G14G13 G13G12"/>
    </vehicle>
    <vehicle id="62" depart="3.07">
        <route edges="I8J8 J8I8 I8H8 H8H9 H9H10 H10I10"/>
    </vehicle>
    <vehicle id="63" depart="3.10">
        <route edges="I2I3 I3H3 H3G3 G3F3 F3E3 E3D3 D3C3 C3C4 C4B4"/>
    </vehicle>
    <vehicle id="64" depart="3.13">
        <route edges="G14G13 G13G14 G14G15 G15G1 G1G2 G2H2 H2I2 I2J2 J2K2 K2K1"/>
    </vehicle>
    <vehicle id="65" depart="3.17">
        <route edges="O15O1 O1N1 N1M1 M1L1 L1K1 K1K2 K2K3"/>
    </vehicle>
    <vehicle id="66" depart="3.20">
        <route edges="D14E14 E14E13 E13E12 E12F12"/>
    </vehicle>
    <vehicle id="67" depart="3.23">
        <route edges="F8F7 F7E7 E7D7 D7C7 C7B7 B7B6 B6B5 B5B4 B4B3 B3B2 B2B1 B1C1 C1D1 D1E1 E1E2"/>
    </vehicle>
    <vehicle id="68" depart="3.27">
        <route edges="D12C12 C12C13 C13D13 D13E13 E13F13 F13G13 G13H13 H13I13 I13J13 J13K13 K13L13 L13M13 M13N13 N13N14"/>
    </vehicle>
    <vehicle id="69" depart="3.30">
        <route edges="P10P11 P11O11 O11N11 N11M11 M11L11 L11K11 K11K10"/>
    </vehicle>
    <vehicle id="70" depart="3.33">
        <route edges="C13B13 B13B12 B12B11 B11B10 B10B9 B9B8 B8C8 C8D8 D8E8 E8F8 F8G8 G8H8 H8I8 I8J8 J8K8 K8L8 L8M8 M8N8 N8O8 O8P8"/>
    </vehicle>
    <vehicle id="71" depart="3.37">
        <route edges="B8B9 B9B10 B10C10 C10D10 D10E10 E10F10 F10G10 G10H10 H10I10 I10J10 J10K10 K10L10 L10M10 M10M11"/>
    </vehicle>
    <vehicle id="72" depart="3.40">
        <route edges="O12O13 O13N13 N13M13 M13L13 L13K13 K13J13 J13I13 I13H13 H13G13 G13F13 F13E13 E13D13 D13C13 C13C14 C14C15 C15C1 C1C2 C2C3 C3C4 C4D4 D4E4 E4F4 F4G4"/>
    </vehicle>
    <vehicle id="73" depart="3.43">
        <route edges="P9O9 O9O8 O8O7 O7O6 O6O5"/>
    </vehicle>
    <vehicle id="74" depart="3.47">
        <route edges="C6C5 C5C4 C4C3 C3C2 C2C1 C1C15 C15D15 D15E15 E15F15 F15G15 G15H15 H15I15 I15J15 J15J14"/>
    </vehicle>
    <vehicle id="75" depart="3.50">
        <route edges="P5O5 O5N5 N5M5 M5L5 L5L4 L4M4"/>
    </vehicle>
    <vehicle id="76" depart="3.53">
        <route edges="B8B9 B9B8 B8B7 B7B6 B6B5 B5B4 B4C4 C4D4 D4E4"/>
    </vehicle>
    <vehicle id="77" depart="3.57">
        <route edges="M11M12 M12L12 L12K12 K12J12 J12I12 I12H12 H12G12 G12F12 F12E12 E12D12 D12C12 C12B12 B12B11 B11B10 B10B9 B9B8 B8B7 B7B6 B6B5 B5C5 C5D5 D5E5 E5F5 F5G5 G5H5 H5I5 I5J5 J5K5 K5L5 L5M5 M5N5 N5O5 O5O4"/>
    </vehicle>
    <vehicle id="78" depart="3.60">
        <route edges="P9P8 P8O8 O8N8 N8M8 M8L8 L8L9 L9M9"/>
    </vehicle>
    <vehicle id="79" depart="3.63">
        <route edges="G10F10 F10F11 F11F12 F12F13 F13F14 F14F15 F15G15 G15H15 H15I15 I15J15 J15K15 K15L15 L15M15 M15M1"/>
    </vehicle>
    <vehicle id="80" depart="3.67">
        <route edges="G15F15 F15F1 F1F2 F2F3 F3F4 F4G4 G4H4 H4I4 I4J4 J4K4 K4L4 L4M4 M4N4 N4O4 O4P4"/>
    </vehicle>
    <vehicle id="81" depart="3.70">
        <route edges="O10N10 N10N9 N9N8 N8M8"/>
    </vehicle>
    <vehicle id="82" depart="3.73">
        <route edges="J13J14 J14I14 I14H14 H14G14 G14F14 F14E14 E14D14 D14C14 C14B14 B14B13 B13B12 B12B11 B11B10 B10B9 B9B8 B8B7 B7C7 C7D7 D7E7 E7F7 F7G7 G7H7 H7I7 I7J7 J7K7 K7L7 L7L6"/>
    </vehicle>
    <vehicle id="83" depart="3.77">
        <route edges="C7C8 C8C9 C9C10 C10C11 C11C12 C12C13 C13D13 D13E13 E13F13 F13G13 G13H13 H13I13 I13J13"/>
    </vehicle>
    <vehicle id="84" depart="3.80">
        <route edges="G6F6 F6E6 E6D6 D6C6 C6C7 C7C8 C8C9 C9B9 B9B10"/>
    </vehicle>
    <vehicle id="85" depart="3.83">
        <route edges="F12F13 F13E13 E13D13 D13D12"/>
    </vehicle>
    <vehicle id="86" depart="3.87">
        <route edges="I8I9 I9H9 H9G9 G9F9 F9E9 E9D9 D9C9 C9B9 B9C9"/>
    </vehicle>
    <vehicle id="87" depart="3.90">
        <route edges="K15L15 L15K15 K15J15 J15I15 I15H15 H15G15 G15F15 F15E15 E15D15 D15C15 C15C1 C1C2 C2C3 C3C4 C4C5 C5C6 C6C7 C7D7 D7E7 E7F7 F7G7 G7H7 H7I7 I7J7 J7K7 K7L7 L7M7 M7N7 N7O7 O7O6"/>
    </vehicle>
    <vehicle id="88" depart="3.93">
        <route edges="H1I1 I1I15 I15I14 I14I13 I13I12 I12I11 I11J11 J11K11 K11L11 L11M11 M11M10"/>
    </vehicle>
    <vehicle id="89" depart="3.97">
        <route edges="P7P6 P6O6 O6N6 N6M6 M6L6 L6K6 K6J6 J6I6 I6H6 H6G6 G6F6 F6E6 E6D6 D6C6 C6C7 C7C8 C8C9 C9C10 C10C11 C11D11"/>
    </vehicle>
    <vehicle id="90" depart="4.00">
        <route edges="J12K12 K12K11 K11K10 K10K9 K9K8 K8L8 L8M8 M8M7"/>
    </vehicle>
    <vehicle id="91" depart="4.03">
        <route edges="C4B4 B4B3 B3C3 C3D3 D3E3 E3F3 F3G3 G3H3 H3I3 I3J3 J3K3 K3K4"/>
    </vehicle>
    <vehicle id="92" depart="4.07">
        <route edges="P12O12 O12N12 N12M12 M12L12 L12K12 K12J12 J12I12 I12I11 I11I10 I10I9 I9H9"/>
    </vehicle>
    <vehicle id="93" depart="4.10">
        <route edges="N3N2 N2M2 M2L2 L2K2 K2K1 K1K15 K15K1"/>
    </vehicle>
    <vehicle id="94" depart="4.13">
        <route edges="D7D8 D8C8 C8B8 B8B7 B7B6 B6B5 B5B4 B4B3 B3B2 B2B1 B1C1 C1D1 D1E1 E1F1 F1G1 G1H1 H1I1 I1J1 J1K1 K1L1 L1M1"/>
    </vehicle>
    <vehicle id="95" depart="4.17">
        <route edges="K13K12 K12J12 J12I12 I12H12 H12G12 G12F12 F12E12 E12D12 D12C12 C12C11 C11C10"/>
    </vehicle>
    <vehicle id="96" depart="4.20">
        <route edges="L2L1 L1K1 K1J1 J1I1 I1H1 H1G1 G1F1 F1F2 F2F3 F3F4 F4F5 F5G5"/>
    </vehicle>
    <vehicle id="97" depart="4.23">
        <route edges="H9H8 H8G8 G8F8 F8E8 E8D8 D8D9 D9D10 D10D11 D11D12 D12C12"/>
    </vehicle>
    <vehicle id="98" depart="4.27">
        <route edges="H9H8 H8G8 G8F8 F8E8 E8D8 D8C8 C8C7 C7C6 C6C7"/>
    </vehicle>
    <vehicle id="99" depart="4.30">
        <route edges="O11P11 P11O11 O11N11 N11M11 M11L11 L11K11 K11J11 J11I11 I11H11 H11G11 G11G12 G12G13 G13G14 G14G15 G15G1 G1F1"/>
    </vehicle>
    <vehicle id="100" depart="4.33">
        <route edges="N6N5 N5M5 M5L5 L5K5 K5J5 J5J4 J4J3 J3K3"/>
    </vehicle>
    <vehicle id="101" depart="4.37">
        <route edges="G12G11 G11F11 F11E11 E11E10 E10E9 E9D9"/>
    </vehicle>
    <vehicle id="102" depart="4.40">
        <route edges="J11J12 J12J11 J11J10 J10K10 K10L10 L10M10 M10N10 N10O10 O10N10"/>
    </vehicle>
    <vehicle id="103" depart="4.43">
        <route edges="G3H3 H3G3 G3G4 G4G5 G5G6 G6G7 G7H7 H7I7 I7J7 J7J6"/>
    </vehicle>
    <vehicle id="104" depart="4.47">
        <route edges="E11E12 E12E13 E13E14 E14E15 E15E1 E1F1 F1G1 G1H1 H1G1"/>
    </vehicle>
    <vehicle id="105" depart="4.50">
        <route edges="J10J9 J9I9 I9H9 H9G9 G9F9 F9E9 E9D9 D9C9 C9C10 C10C11 C11C12 C12C13 C13C14 C14B14 B14B15"/>
    </vehicle>
    <vehicle id="106" depart="4.53">
        <route edges="O4N4 N4M4 M4L4 L4K4 K4J4 J4I4 I4H4 H4G4 G4F4 F4E4 E4D4 D4C4 C4C5 C5C6 C6C7 C7C8 C8C9 C9C10 C10C11 C11D11 D11E11"/>
    </vehicle>
    <vehicle id="107" depart="4.57">
        <route edges="F1F2 F2E2 E2D2 D2C2 C2B2 B2B1 B1B15 B15B14 B14B13 B13B12 B12B11 B11B10 B10B9"/>
    </vehicle>
    <vehicle id="108" depart="4.60">
        <route edges="N3O3 O3N3 N3M3 M3L3 L3K3 K3J3 J3I3 I3H3 H3G3 G3F3 F3E3 E3D3 D3C3 C3C4 C4C5 C5C6 C6B6 B6B5"/>
    </vehicle>
    <vehicle id="109" depart="4.63">
        <route edges="M8M7 M7L7 L7K7 K7K6 K6K5 K5K4 K4K3 K3L3"/>
    </vehicle>
    <vehicle id="110" depart="4.67">
        <route edges="O13O12 O12O11 O11O10"/>
    </vehicle>
    <vehicle id="111" depart="4.70">
        <route edges="I4I5 I5H5 H5G5 G5F5 F5E5 E5D5 D5C5 C5C4 C4D4"/>
    </vehicle>
    <vehicle id="112" depart="4.73">
        <route edges="E15E1 E1E2 E2E3 E3E4 E4F4 F4G4 G4H4 H4I4 I4J4 J4K4 K4L4 L4M4 M4N4 N4N3"/>
    </vehicle>
    <vehicle id="113" depart="4.77">
        <route edges="K14J14 J14I14 I14H14 H14G14 G14F14 F14E14 E14D14 D14C14 C14C15 C15C1 C1C2 C2C3 C3C4 C4C5 C5D5 D5E5 E5F5 F5G5 G5H5 H5I5 I5J5 J5K5 K5L5 L5M5 M5M6"/>
    </vehicle>
    <vehicle id="114" depart="4.80">
        <route edges="D15C15 C15B15 B15B14 B14B13 B13B12 B12B11 B11B10 B10B9 B9B8 B8C8 C8D8 D8E8 E8F8 F8G8 G8H8 H8I8"/>
    </vehicle>
    <vehicle id="115" depart="4.83">
        <route edges="N3N4 N4M4 M4L4 L4K4 K4J4 J4I4 I4H4 H4G4 G4F4 F4E4 E4E5 E5E6 E6E7 E7E8 E8D8"/>
    </vehicle>
    <vehicle id="116" depart="4.87">
        <route edges="M11L11 L11K11 K11J11 J11I11 I11H11 H11G11 G11F11 F11E11 E11D11 D11C11 C11B11 B11B10 B10B9 B9B8 B8B7 B7B6 B6B5 B5B4 B4B3 B3C3"/>
    </vehicle>
    <vehicle id="117" depart="4.90">
        <route edges="H2H3 H3H4 H4I4"/>
    </vehicle>
    <vehicle id="118" depart="4.93">
        <route edges="G14F14 F14F15 F15F1 F1F2 F2G2 G2H2 H2I2 I2J2 J2K2 K2L2 L2M2 M2N2 N2O2 O2P2 P2P1"/>
    </vehicle>
    <vehicle id="119" depart="4.97">
        <route edges="O13N13 N13N14 N14N15 N15N1 N1N2 N2N3 N3O3 O3P3 P3O3"/>
    </vehicle>
    <vehicle id="120" depart="5.00">
        <route edges="B15B14 B14B15 B15B1 B1B2 B2C2 C2D2 D2E2 E2E1"/>
    </vehicle>
    <vehicle id="121" depart="5.03">
        <route edges="O7P7 P7O7 O7O8 O8N8"/>
    </vehicle>
    <vehicle id="122" depart="5.07">
        <route edges="B14B15 B15B14 B14B13 B13B12 B12C12 C12D12 D12E12 E12F12 F12E12"/>
    </vehicle>
    <vehicle id="123" depart="5.10">
        <route edges="K2K3 K3J3 J3I3 I3H3 H3G3 G3G2 G2F2"/>
    </vehicle>
    <vehicle id="124" depart="5.13">
        <route edges="L5M5 M5L5 L5K5 K5J5 J5I5 I5H5 H5G5 G5F5 F5E5 E5D5 D5C5 C5C6 C6C7 C7C8 C8C9 C9C10 C10C11 C11D11 D11E11 E11F11 F11E11"/>
    </vehicle>
    <vehicle id="125" depart="5.17">
        <route edges="M6L6 L6K6 K6J6 J6I6 I6H6 H6G6 G6G7 G7G8 G8G9 G9G10 G10G11 G11H11"/>
    </vehicle>
    <vehicle id="126" depart="5.20">
        <route edges="K4K5 K5J5 J5I5 I5H5 H5G5 G5F5 F5E5 E5D5 D5C5 C5C6 C6C7 C7C8 C8C9 C9C10 C10C11 C11D11 D11E11 E11F11 F11G11 G11H11 H11I11 I11J11 J11K11 K11J11"/>
    </vehicle>
    <vehicle id="127" depart="5.23">
        <route edges="I13I12 I12H12 H12G12 G12F12 F12E12 E12D12 D12C12 C12B12 B12B11 B11B10 B10B9 B9B8 B8B7 B7B6 B6C6 C6D6 D6E6 E6F6 F6G6 G6H6 H6H7"/>
    </vehicle>
    <vehicle id="128" depart="5.27">
        <route edges="K10J10 J10I10 I10H10 H10G10 G10F10 F10E10 E10D10 D10C10 C10C11 C11C12 C12C13 C13C14 C14C15 C15D15"/>
    </vehicle>
    <vehicle id="129" depart="5.30">
        <route edges="P7P8 P8O8 O8N8 N8M8 M8M9 M9M10 M10M11 M11M12 M12M13 M13L13"/>
    </vehicle>
    <vehicle id="130" depart="5.33">
        <route edges="D8E8 E8E7 E7F7 F7G7 G7H7 H7I7"/>
    </vehicle>
    <vehicle id="131" depart="5.37">
        <route edges="E13F13 F13F12 F12F11 F11F10 F10G10 G10H10 H10I10 I10J10 J10I10"/>
    </vehicle>
    <vehicle id="132" depart="5.40">
        <route edges="C10C9 C9C8 C8C7 C7C6 C6D6 D6D5"/>
    </vehicle>
    <vehicle id="133" depart="5.43">
        <route edges="D10D9 D9C9 C9B9 B9B8 B8B7 B7B6 B6B5 B5B4 B4B3 B3B2 B2C2 C2D2 D2E2 E2F2 F2G2 G2H2 H2I2 I2J2 J2K2 K2L2 L2M2 M2N2 N2O2 O2P2 P2P1"/>
    </vehicle>
    <vehicle id="134" depart="5.47">
        <route edges="P11P10 P10O10 O10N10 N10M10 M10L10 L10K10 K10J10 J10I10 I10H10 H10G10 G10F10 F10E10 E10D10 D10C10 C10C11 C11C12 C12C13 C13C14 C14C15 C15C1 C1D1 D1E1 E1F1 F1G1 G1H1 H1I1 I1J1 J1K1 K1L1 L1M1 M1N1 N1O1 O1P1 P1P2"/>
    </vehicle>
    <vehicle id="135" depart="5.50">
        <route edges="G15F15 F15F14 F14F13 F13F12 F12F11 F11F10 F10E10"/>
    </vehicle>
    <vehicle id="136" depart="5.53">
        <route edges="L10M10 M10M9 M9N9"/>
    </vehicle>
    <vehicle id="137" depart="5.57">
        <route edges="B14C14 C14D14 D14E14 E14F14 F14G14 G14H14 H14I14 I14J14 J14K14 K14L14 L14M14 M14N14 N14O14 O14P14"/>
    </vehicle>
    <vehicle id="138" depart="5.60">
        <route edges="E10D10 D10D9 D9D8 D8E8 E8F8 F8G8 G8H8 H8I8 I8J8 J8K8 K8K7"/>
    </vehicle>
    <vehicle id="139" depart="5.63">
        <route edges="J1J2 J2J3 J3J4 J4J5 J5K5 K5L5 L5M5 M5N5"/>
    </vehicle>
    <vehicle id="140" depart="5.67">
        <route edges="E11E12 E12E13 E13E14 E14E15 E15E1 E1E2 E2F2 F2G2 G2H2 H2I2 I2J2 J2K2 K2L2 L2M2 M2M3"/>
    </vehicle>
    <vehicle id="141" depart="5.70">
        <route edges="O14N14 N14N13 N13N12 N12N11 N11O11"/>
    </vehicle>
    <vehicle id="142" depart="5.73">
        <route edges="G8G9 G9G8 G8G7 G7G6 G6G5 G5G4 G4H4 H4I4 I4J4 J4K4 K4L4"/>
    </vehicle>
    <vehicle id="143" depart="5.77">
        <route edges="D11E11 E11D11 D11D12 D12D13 D13D14 D14D15 D15D1 D1E1 E1F1 F1G1 G1H1 H1I1 I1J1 J1K1"/>
    </vehicle>
    <vehicle id="144" depart="5.80">
        <route edges="P1O1 O1N1 N1M1 M1L1 L1L15 L15L14 L14L13 L13K13"/>
    </vehicle>
    <vehicle id="145" depart="5.83">
        <route edges="M9M8 M8L8 L8L9 L9L10 L10L11 L11L12"/>
    </vehicle>
    <vehicle id="146" depart="5.87">
        <route edges="O1O2 O2N2 N2M2 M2L2 L2K2 K2J2 J2I2 I2H2 H2G2 G2F2 F2E2 E2D2 D2C2 C2C3 C3C4 C4C5 C5C6 C6C7 C7C8 C8C9 C9D9 D9E9 E9F9 F9G9 G9H9 H9I9 I9J9 J9K9 K9L9 L9M9 M9N9 N9M9"/>
    </vehicle>
    <vehicle id="147" depart="5.90">
        <route edges="N13M13 M13L13 L13K13 K13J13 J13J12 J12J11 J11J10"/>
    </vehicle>
    <vehicle id="148" depart="5.93">
        <route edges="J13I13 I13I12 I12I11 I11I10 I10I9 I9J9 J9K9 K9L9 L9L10"/>
    </vehicle>
    <vehicle id="149" depart="5.97">
        <route edges="O13P13 P13O13 O13N13 N13M13 M13L13 L13K13 K13K12 K12K11 K11K10 K10K9 K9K8 K8L8"/>
    </vehicle>
    <vehicle id="150" depart="6.00">
        <route edges="D9D10 D10D11 D11D12 D12D13 D13E13 E13F13 F13G13 G13F13"/>
    </vehicle>
    <vehicle id="151" depart="6.03">
        <route edges="G4G3 G3F3 F3E3 E3D3 D3C3 C3B3 B3B2 B2B1 B1B15 B15B14 B14B13 B13B12 B12C12 C12B12"/>
    </vehicle>
    <vehicle id="152" depart="6.07">
        <route edges="D13C13 C13D13 D13D12 D12E12 E12F12 F12G12"/>
    </vehicle>
    <vehicle id="153" depart="6.10">
        <route edges="O10P10 P10P11 P11P12 P12P11"/>
    </vehicle>
    <vehicle id="154" depart="6.13">
        <route edges="D2D3 D3D4 D4E4 E4F4 F4G4 G4H4 H4I4 I4I3"/>
    </vehicle>
    <vehicle id="155" depart="6.17">
        <route edges="N15N1 N1M1 M1L1 L1K1 K1J1 J1I1 I1H1 H1G1 G1G15 G15G1"/>
    </vehicle>
    <vehicle id="156" depart="6.20">
        <route edges="G15F15 F15F1 F1F2 F2F3 F3F4 F4F5 F5G5 G5H5 H5I5 I5J5 J5K5 K5L5 L5M5 M5N5 N5O5"/>
    </vehicle>
    <vehicle id="157" depart="6.23">
        <route edges="H12H13 H13G13 G13F13 F13E13 E13D13 D13C13 C13B13 B13B12 B12B11 B11B10 B10B9 B9B8 B8B7 B7C7 C7D7 D7E7 E7F7 F7G7 G7H7 H7I7 I7J7 J7K7"/>
    </vehicle>
    <vehicle id="158" depart="6.27">
        <route edges="K14J14 J14I14 I14H14 H14G14 G14G13 G13G12 G12G11 G11G10 G10G9 G9F9"/>
    </vehicle>
    <vehicle id="159" depart="6.30">
        <route edges="G8F8 F8F9 F9F10 F10F11 F11F12 F12G12 G12H12 H12I12 I12J12 J12K12 K12L12 L12M12"/>
    </vehicle>
    <vehicle id="160" depart="6.33">
        <route edges="M4M5 M5L5 L5K5 K5J5 J5K5"/>
    </vehicle>
    <vehicle id="161" depart="6.37">
        <route edges="J11J10 J10I10 I10H10 H10H11 H11H12 H12H13 H13H14 H14G14"/>
    </vehicle>
    <vehicle id="162" depart="6.40">
        <route edges="J2K2 K2J2 J2I2 I2H2 H2G2 G2F2 F2E2 E2D2 D2D3 D3D4 D4D5 D5D6"/>
    </vehicle>
    <vehicle id="163" depart="6.43">
        <route edges="E2E3 E3D3 D3C3 C3B3 B3B2 B2B1 B1B15 B15B14 B14B13 B13B12 B12C12 C12D12 D12D13"/>
    </vehicle>
    <vehicle id="164" depart="6.47">
        <route edges="P12O12 O12N12 N12M12 M12L12 L12K12 K12J12 J12I12 I12H12 H12G12 G12F12 F12E12 E12D12 D12C12 C12C13 C13C14 C14C15 C15C1 C1C2 C2C3 C3C4 C4D4 D4E4 E4E5"/>
    </vehicle>
    <vehicle id="165" depart="6.50">
        <route edges="K6K7 K7J7 J7I7 I7H7 H7G7 G7F7 F7E7 E7D7 D7C7 C7C8 C8C9 C9C10 C10C11 C11C12 C12C13 C13C14 C14D14 D14E14 E14F14 F14G14 G14H14 H14I14 I14J14 J14K14 K14L14 L14L13"/>
    </vehicle>
    <vehicle id="166" depart="6.53">
        <route edges="E15D15 D15C15 C15B15 B15B14 B14B13 B13B12 B12B11 B11B10 B10B9 B9B8 B8C8 C8D8 D8E8 E8F8 F8G8 G8H8 H8I8 I8J8 J8K8 K8L8"/>
    </vehicle>
    <vehicle id="167" depart="6.57">
        <route edges="B3B2 B2B1 B1B15 B15B14 B14B13 B13C13 C13D13 D13E13 E13F13 F13G13 G13H13 H13I13 I13J13 J13J14"/>
    </vehicle>
    <vehicle id="168" depart="6.60">
        <route edges="C4C5 C5C4 C4C3 C3D3 D3E3 E3F3 F3G3 G3H3 H3I3 I3J3 J3K3 K3L3 L3M3 M3N3 N3O3 O3P3 P3P4"/>
    </vehicle>
    <vehicle id="169" depart="6.63">
        <route edges="K15J15 J15I15 I15H15 H15G15 G15F15 F15E15 E15D15 D15C15 C15C1 C1C2 C2C3 C3C4 C4C5 C5C6 C6D6 D6E6 E6F6 F6F5"/>
    </vehicle>
    <vehicle id="170" depart="6.67">
        <route edges="L2L1 L1K1 K1J1 J1I1 I1H1 H1G1 G1F1 F1E1 E1D1 D1C1 C1B1 B1B15 B15B14 B14B13 B13B12 B12B11 B11B10 B10B9 B9C9 C9D9 D9E9 E9F9 F9G9 G9H9 H9I9 I9J9 J9K9 K9L9 L9L8"/>
    </vehicle>
    <vehicle id="171" depart="6.70">
        <route edges="O3O2 O2N2 N2M2 M2L2 L2K2 K2J2 J2I2 I2H2 H2G2 G2F2 F2E2 E2D2 D2C2 C2B2 B2B1 B1B15 B15B14 B14B13 B13B12 B12B11 B11B10 B10C10 C10D10 D10E10 E10E11"/>
    </vehicle>
    <vehicle id="172" depart="6.73">
        <route edges="H1G1 G1F1 F1E1 E1D1 D1C1 C1C2 C2C3 C3C4 C4C5 C5C6 C6C7 C7D7 D7E7 E7F7 F7G7 G7H7 H7I7 I7J7 J7K7 K7L7 L7M7 M7L7"/>
    </vehicle>
    <vehicle id="173" depart="6.77">
        <route edges="I15H15 H15H14 H14H13 H13H12 H12H11 H11H10 H10I10 I10J10 J10K10 K10L10 L10M10 M10N10 N10O10 O10P10"/>
    </vehicle>
    <vehicle id="174" depart="6.80">
        <route edges="L4L3 L3K3 K3J3 J3I3 I3H3 H3G3 G3F3 F3E3 E3D3 D3C3 C3C4 C4C5 C5C6 C6C7 C7B7 B7B6"/>
    </vehicle>
    <vehicle id="175" depart="6.83">
        <route edges="D7D6 D6D7 D7D8 D8E8 E8F8 F8G8 G8H8 H8I8 I8J8 J8J9"/>
    </vehicle>
    <vehicle id="176" depart="6.87">
        <route edges="M4L4 L4K4 K4J4 J4I4 I4H4 H4G4 G4F4 F4E4 E4D4 D4C4 C4C5 C5C6 C6C7 C7C8 C8C9 C9C10 C10D10 D10E10 E10F10 F10G10 G10H10 H10I10 I10J10 J10K10 K10L10 L10K10"/>
    </vehicle>
    <vehicle id="177" depart="6.90">
        <route edges="E8D8 D8D9 D9E9 E9F9 F9G9 G9H9 H9I9 I9J9 J9K9 K9L9 L9M9 M9M8"/>
    </vehicle>
    <vehicle id="178" depart="6.93">
        <route edges="G2G1 G1F1 F1E1 E1D1 D1C1 C1B1 B1B15 B15B14 B14B13 B13B12 B12B11 B11B10 B10B9 B9C9 C9D9 D9E9 E9F9 F9F8"/>
    </vehicle>
    <vehicle id="179" depart="6.97">
        <route edges="F14E14 E14E15 E15E1 E1E2 E2E3 E3E4 E4F4 F4G4 G4H4 H4I4 I4J4 J4K4 K4L4 L4M4 M4M5"/>
    </vehicle>
    <vehicle id="180" depart="7.00">
        <route edges="C10D10 D10D9 D9E9 E9F9 F9G9 G9H9 H9I9 I9J9 J9K9 K9L9 L9M9 M9N9 N9O9 O9O10"/>
    </vehicle>
    <vehicle id="181" depart="7.03">
        <route edges="J13K13 K13J13 J13I13 I13H13 H13G13 G13F13 F13F12 F12G12"/>
    </vehicle>
    <vehicle id="182" depart="7.07">
        <route edges="I5H5 H5G5 G5F5 F5E5 E5D5 D5C5 C5C6 C6C7 C7C8 C8C9 C9C10 C10C11 C11D11 D11E11 E11F11"/>
    </vehicle>
    <vehicle id="183" depart="7.10">
        <route edges="M4M5 M5L5 L5K5 K5K6 K6K7 K7K8 K8K9 K9J9"/>
    </vehicle>
    <vehicle id="184" depart="7.13">
        <route edges="K6L6 L6K6 K6J6 J6I6 I6H6 H6G6 G6F6 F6E6 E6E5 E5E4 E4F4"/>
    </vehicle>
    <vehicle id="185" depart="7.17">
        <route edges="F1E1 E1D1 D1C1 C1B1 B1B15 B15B14 B14B13 B13B12 B12B11 B11B10 B10C10 C10D10 D10E10 E10F10 F10G10 G10G9"/>
    </vehicle>
    <vehicle id="186" depart="7.20">
        <route edges="O9O8 O8N8 N8M8 M8L8 L8K8 K8J8 J8I8 I8H8 H8G8 G8F8 F8E8 E8D8 D8D7 D7D6 D6E6"/>
    </vehicle>
    <vehicle id="187" depart="7.23">
        <route edges="B14C14 C14C15 C15C1 C1C2 C2D2 D2E2 E2F2 F2G2 G2G3"/>
    </vehicle>
    <vehicle id="188" depart="7.27">
        <route edges="K13K14 K14J14 J14I14 I14I15 I15I1 I1I2 I2I3 I3I4 I4I3"/>
    </vehicle>
    <vehicle id="189" depart="7.30">
        <route edges="P7O7 O7N7 N7M7 M7L7 L7K7 K7J7 J7I7 I7H7 H7G7 G7F7 F7E7 E7D7 D7C7 C7C8 C8C9 C9C10 C10C11 C11C12 C12C13 C13D13 D13E13 E13F13 F13F12"/>
    </vehicle>
    <vehicle id="190" depart="7.33">
        <route edges="F2E2 E2F2 F2F1 F1G1"/>
    </vehicle>
    <vehicle id="191" depart="7.37">