<?xml version="1.0" encoding="utf-8"?>
<edges>
  <edge id="2" from="20" to="10" priority="1" numLanes="1" speed="14" />
  <edge id="3" from="10" to="20" priority="1" numLanes="1" speed="14" />
  <edge id="4" from="6" to="5" priority="1" numLanes="1" speed="14" />
  <edge id="5" from="5" to="6" priority="1" numLanes="1" speed="14" />
  <edge id="6" from="0" to="22" priority="1" numLanes="1" speed="14" />
  <edge id="7" from="22" to="0" priority="1" numLanes="1" speed="14" />
  <edge id="8" from="23" to="11" priority="1" numLanes="1" speed="14" />
  <edge id="9" from="11" to="23" priority="1" numLanes="1" speed="14" />
  <edge id="10" from="15" to="19" priority="1" numLanes="1" speed="14" />
  <edge id="11" from="19" to="15" priority="1" numLanes="1" speed="14" />
  <edge id="12" from="2" to="0" priority="1" numLanes="1" speed="14" />
  <edge id="13" from="0" to="2" priority="1" numLanes="1" speed="14" />
  <edge id="14" from="22" to="3" priority="1" numLanes="1" speed="14" />
  <edge id="15" from="3" to="22" priority="1" numLanes="1" speed="14" />
  <edge id="16" from="5" to="4" priority="1" numLanes="1" speed="14" />
  <edge id="17" from="4" to="5" priority="1" numLanes="1" speed="14" />
  <edge id="18" from="21" to="4" priority="1" numLanes="1" speed="14" />
  <edge id="19" from="4" to="21" priority="1" numLanes="1" speed="14" />
  <edge id="20" from="25" to="27" priority="1" numLanes="1" speed="14" />
  <edge id="21" from="27" to="25" priority="1" numLanes="1" speed="14" />
  <edge id="22" from="8" to="17" priority="1" numLanes="1" speed="14" />
  <edge id="23" from="17" to="8" priority="1" numLanes="1" speed="14" />
  <edge id="24" from="26" to="20" priority="1" numLanes="1" speed="14" />
  <edge id="25" from="20" to="26" priority="1" numLanes="1" speed="14" />
  <edge id="26" from="13" to="2" priority="1" numLanes="1" speed="14" />
  <edge id="27" from="2" to="13" priority="1" numLanes="1" speed="14" />
  <edge id="28" from="6" to="4" priority="1" numLanes="1" speed="14" />
  <edge id="29" from="4" to="6" priority="1" numLanes="1" speed="14" />
  <edge id="30" from="8" to="18" priority="1" numLanes="1" speed="14" />
  <edge id="31" from="18" to="8" priority="1" numLanes="1" speed="14" />
  <edge id="32" from="2" to="9" priority="1" numLanes="1" speed="14" />
  <edge id="33" from="9" to="2" priority="1" numLanes="1" speed="14" />
  <edge id="34" from="7" to="21" priority="1" numLanes="1" speed="14" />
  <edge id="35" from="21" to="7" priority="1" numLanes="1" speed="14" />
  <edge id="36" from="10" to="24" priority="1" numLanes="1" speed="14" />
  <edge id="37" from="24" to="10" priority="1" numLanes="1" speed="14" />
  <edge id="38" from="9" to="12" priority="1" numLanes="1" speed="14" />
  <edge id="39" from="12" to="9" priority="1" numLanes="1" speed="14" />
  <edge id="40" from="12" to="7" priority="1" numLanes="1" speed="14" />
  <edge id="41" from="7" to="12" priority="1" numLanes="1" speed="14" />
  <edge id="42" from="1" to="5" priority="1" numLanes="1" speed="14" />
  <edge id="43" from="5" to="1" priority="1" numLanes="1" speed="14" />
  <edge id="44" from="19" to="17" priority="1" numLanes="1" speed="14" />
  <edge id="45" from="17" to="19" priority="1" numLanes="1" speed="14" />
  <edge id="46" from="6" to="16" priority="1" numLanes="1" speed="14" />
  <edge id="47" from="16" to="6" priority="1" numLanes="1" speed="14" />
  <edge id="48" from="27" to="24" priority="1" numLanes="1" speed="14" />
  <edge id="49" from="24" to="27" priority="1" numLanes="1" speed="14" />
  <edge id="50" from="27" to="8" priority="1" numLanes="1" speed="14" />
  <edge id="51" from="8" to="27" priority="1" numLanes="1" speed="14" />
  <edge id="52" from="7" to="17" priority="1" numLanes="1" speed="14" />
  <edge id="53" from="17" to="7" priority="1" numLanes="1" speed="14" />
  <edge id="54" from="26" to="25" priority="1" numLanes="1" speed="14" />
  <edge id="55" from="25" to="26" priority="1" numLanes="1" speed="14" />
  <edge id="56" from="18" to="24" priority="1" numLanes="1" speed="14" />
  <edge id="57" from="24" to="18" priority="1" numLanes="1" speed="14" />
  <edge id="58" from="22" to="23" priority="1" numLanes="1" speed="14" />
  <edge id="59" from="23" to="22" priority="1" numLanes="1" speed="14" />
  <edge id="60" from="0" to="13" priority="1" numLanes="1" speed="14" />
  <edge id="61" from="13" to="0" priority="1" numLanes="1" speed="14" />
  <edge id="62" from="2" to="14" priority="1" numLanes="1" speed="14" />
  <edge id="63" from="14" to="2" priority="1" numLanes="1" speed="14" />
  <edge id="64" from="10" to="3" priority="1" numLanes="1" speed="14" />
  <edge id="65" from="3" to="10" priority="1" numLanes="1" speed="14" />
  <edge id="66" from="14" to="12" priority="1" numLanes="1" speed="14" />
  <edge id="67" from="12" to="14" priority="1" numLanes="1" speed="14" />
  <edge id="68" from="14" to="1" priority="1" numLanes="1" speed="14" />
  <edge id="69" from="1" to="14" priority="1" numLanes="1" speed="14" />
  <edge id="70" from="11" to="25" priority="1" numLanes="1" speed="14" />
  <edge id="71" from="25" to="11" priority="1" numLanes="1" speed="14" />
</edges>