<?xml version="1.0" encoding="UTF-8"?>

<!-- generated on 03/12/19 16:30:29 by Eclipse SUMO netedit Version 1.1.0
<configuration xmlns:xsi="http://www.w3.org/2001/XMLSchema-instance" xsi:noNamespaceSchemaLocation="http://sumo.dlr.de/xsd/netconvertConfiguration.xsd">

    <input>
        <sumo-net-file value="C:\unity-workspace\ena\Assets\sumo\sumo-plainxmls\fixed.net.xml"/>
    </input>

    <output>
        <output-file value="C:\unity-workspace\ena\Assets\sumo\sumo-plainxmls\fixedv2.net.xml"/>
    </output>

    <processing>
        <geometry.max-grade.fix value="false"/>
        <offset.disable-normalization value="true"/>
        <lefthand value="true"/>
    </processing>

    <junctions>
        <no-turnarounds value="true"/>
        <junctions.corner-detail value="5"/>
        <junctions.limit-turn-speed value="5.5"/>
        <rectangular-lane-cut value="false"/>
    </junctions>

    <pedestrian>
        <walkingareas value="false"/>
    </pedestrian>

</configuration>
-->

<net version="1.1" junctionCornerDetail="5" lefthand="true" limitTurnSpeed="5.50" xmlns:xsi="http://www.w3.org/2001/XMLSchema-instance" xsi:noNamespaceSchemaLocation="http://sumo.dlr.de/xsd/net_file.xsd">

    <location netOffset="-18.21,372.18" convBoundary="-1.44,-10.05,415.39,281.08" origBoundary="18.21,-372.18,407.41,-115.68" projParameter="!"/>

    <edge id=":0_0" function="internal">
        <lane id=":0_0_0" index="0" speed="6.82" length="9.16" shape="392.05,174.15 389.63,174.46 387.60,173.95 385.96,172.60 384.72,170.43"/>
    </edge>
    <edge id=":0_1" function="internal">
        <lane id=":0_1_0" index="0" speed="6.96" length="9.29" shape="392.05,174.15 389.59,174.47 387.51,173.98 385.81,172.66 384.48,170.53"/>
    </edge>
    <edge id=":0_2" function="internal">
        <lane id=":0_2_0" index="0" speed="13.95" length="14.24" shape="392.05,174.15 388.57,175.19 385.28,176.34 382.04,177.65 378.73,179.14"/>
    </edge>
    <edge id=":0_3" function="internal">
        <lane id=":0_3_0" index="0" speed="13.95" length="13.72" shape="380.10,182.03 383.34,180.56 386.40,179.31 389.53,178.21 392.92,177.17"/>
    </edge>
    <edge id=":0_4" function="internal">
        <lane id=":0_4_0" index="0" speed="8.14" length="14.06" shape="380.10,182.03 383.32,179.92 385.16,177.28 385.63,174.12 384.72,170.43"/>
    </edge>
    <edge id=":0_5" function="internal">
        <lane id=":0_5_0" index="0" speed="8.01" length="6.34" shape="380.10,182.03 383.32,179.92 384.73,177.86"/>
    </edge>
    <edge id=":0_13" function="internal">
        <lane id=":0_13_0" index="0" speed="8.01" length="7.62" shape="384.73,177.86 385.13,177.29 385.51,174.16 384.48,170.53"/>
    </edge>
    <edge id=":0_6" function="internal">
        <lane id=":0_6_0" index="0" speed="6.54" length="8.98" shape="381.51,171.73 382.18,174.08 381.94,176.10 380.79,177.78 378.73,179.14"/>
    </edge>
    <edge id=":0_7" function="internal">
        <lane id=":0_7_0" index="0" speed="8.39" length="14.01" shape="381.51,171.73 383.52,174.97 386.09,176.95 389.22,177.68 392.92,177.17"/>
    </edge>
    <edge id=":0_8" function="internal">
        <lane id=":0_8_0" index="0" speed="3.65" length="4.68" shape="381.51,171.73 382.70,172.54 383.60,172.61 384.19,171.94 384.48,170.53"/>
    </edge>
    <edge id=":0_9" function="internal">
        <lane id=":0_9_0" index="0" speed="6.67" length="9.11" shape="381.75,171.63 382.34,174.01 382.03,176.06 380.83,177.77 378.73,179.14"/>
    </edge>
    <edge id=":0_10" function="internal">
        <lane id=":0_10_0" index="0" speed="8.24" length="3.98" shape="381.75,171.63 383.64,174.92 383.79,175.04"/>
    </edge>
    <edge id=":0_11" function="internal">
        <lane id=":0_11_0" index="0" speed="3.65" length="2.08" shape="381.75,171.63 382.95,172.44 383.58,172.49"/>
    </edge>
    <edge id=":0_12" function="internal">
        <lane id=":0_12_0" index="0" speed="3.18" length="2.94" shape="381.75,171.63 384.48,170.53"/>
    </edge>
    <edge id=":0_14" function="internal">
        <lane id=":0_14_0" index="0" speed="8.24" length="9.93" shape="383.79,175.04 386.13,176.93 389.22,177.68 392.92,177.17"/>
    </edge>
    <edge id=":0_15" function="internal">
        <lane id=":0_15_0" index="0" speed="3.65" length="2.59" shape="383.58,172.49 383.84,172.51 384.43,171.84 384.72,170.43"/>
    </edge>
    <edge id=":10_0" function="internal">
        <lane id=":10_0_0" index="0" speed="10.24" length="9.42" shape="148.36,250.03 147.70,252.68 146.81,254.40 145.38,255.76 143.11,257.37"/>
    </edge>
    <edge id=":10_1" function="internal">
        <lane id=":10_1_0" index="0" speed="9.77" length="4.42" shape="148.36,250.03 148.18,252.86 148.50,254.41"/>
    </edge>
    <edge id=":10_6" function="internal">
        <lane id=":10_6_0" index="0" speed="9.77" length="7.33" shape="148.50,254.41 148.73,255.57 150.04,258.18 152.08,260.67"/>
    </edge>
    <edge id=":10_2" function="internal">
        <lane id=":10_2_0" index="0" speed="8.45" length="8.64" shape="154.35,258.42 152.81,256.55 151.82,254.63 151.38,252.66 151.50,250.63"/>
    </edge>
    <edge id=":10_3" function="internal">
        <lane id=":10_3_0" index="0" speed="8.05" length="12.43" shape="154.35,258.42 151.71,256.39 148.95,255.54 146.09,255.87 143.11,257.37"/>
    </edge>
    <edge id=":10_4" function="internal">
        <lane id=":10_4_0" index="0" speed="6.55" length="7.91" shape="144.93,260.00 146.82,259.05 148.65,258.84 150.40,259.38 152.08,260.67"/>
    </edge>
    <edge id=":10_5" function="internal">
        <lane id=":10_5_0" index="0" speed="11.43" length="11.85" shape="144.93,260.00 147.56,258.03 149.41,256.09 150.66,253.77 151.50,250.63"/>
    </edge>
    <edge id=":12_0" function="internal">
        <lane id=":12_0_0" index="0" speed="11.59" length="10.87" shape="273.02,12.39 270.20,13.79 267.99,14.56 265.70,14.67 262.67,14.09"/>
    </edge>
    <edge id=":12_1" function="internal">
        <lane id=":12_1_0" index="0" speed="8.01" length="5.03" shape="273.02,12.39 269.91,14.57 269.25,15.60"/>
    </edge>
    <edge id=":12_6" function="internal">
        <lane id=":12_6_0" index="0" speed="8.01" length="8.90" shape="269.25,15.60 268.21,17.23 267.92,20.38 269.05,24.01"/>
    </edge>
    <edge id=":12_2" function="internal">
        <lane id=":12_2_0" index="0" speed="6.51" length="8.86" shape="271.94,22.64 271.22,20.33 271.40,18.33 272.49,16.63 274.47,15.25"/>
    </edge>
    <edge id=":12_3" function="internal">
        <lane id=":12_3_0" index="0" speed="11.01" length="13.02" shape="271.94,22.64 270.11,19.48 267.96,17.00 265.48,15.20 262.67,14.09"/>
    </edge>
    <edge id=":12_4" function="internal">
        <lane id=":12_4_0" index="0" speed="9.80" length="10.22" shape="261.87,17.19 264.00,18.05 265.91,19.48 267.59,21.46 269.05,24.01"/>
    </edge>
    <edge id=":12_5" function="internal">
        <lane id=":12_5_0" index="0" speed="12.68" length="13.08" shape="261.87,17.19 265.25,17.73 268.31,17.54 271.30,16.68 274.47,15.25"/>
    </edge>
    <edge id=":14_0" function="internal">
        <lane id=":14_0_0" index="0" speed="6.56" length="8.98" shape="327.07,126.13 324.72,126.78 322.70,126.53 321.01,125.37 319.65,123.32"/>
    </edge>
    <edge id=":14_1" function="internal">
        <lane id=":14_1_0" index="0" speed="14.00" length="14.22" shape="327.07,126.13 314.17,132.11"/>
    </edge>
    <edge id=":14_2" function="internal">
        <lane id=":14_2_0" index="0" speed="14.00" length="14.07" shape="315.58,134.99 328.35,129.07"/>
    </edge>
    <edge id=":14_3" function="internal">
        <lane id=":14_3_0" index="0" speed="8.00" length="5.68" shape="315.58,134.99 318.76,132.82 319.76,131.29"/>
    </edge>
    <edge id=":14_6" function="internal">
        <lane id=":14_6_0" index="0" speed="8.00" length="8.38" shape="319.76,131.29 320.49,130.16 320.79,126.99 319.65,123.32"/>
    </edge>
    <edge id=":14_4" function="internal">
        <lane id=":14_4_0" index="0" speed="6.51" length="8.94" shape="316.76,124.69 317.49,127.02 317.30,129.04 316.19,130.74 314.17,132.11"/>
    </edge>
    <edge id=":14_5" function="internal">
        <lane id=":14_5_0" index="0" speed="8.05" length="14.03" shape="316.76,124.69 318.88,127.89 321.51,129.69 324.67,130.08 328.35,129.07"/>
    </edge>
    <edge id=":17_0" function="internal">
        <lane id=":17_0_0" index="0" speed="6.77" length="8.62" shape="110.44,13.48 109.30,15.45 107.76,16.69 105.81,17.21 103.46,17.01"/>
    </edge>
    <edge id=":17_1" function="internal">
        <lane id=":17_1_0" index="0" speed="14.00" length="13.29" shape="110.44,13.48 109.22,16.75 108.32,19.78 107.65,22.87 107.13,26.32"/>
    </edge>
    <edge id=":17_2" function="internal">
        <lane id=":17_2_0" index="0" speed="14.00" length="12.48" shape="110.30,26.72 110.79,23.40 111.39,20.58 112.22,17.82 113.41,14.68"/>
    </edge>
    <edge id=":17_3" function="internal">
        <lane id=":17_3_0" index="0" speed="8.02" length="5.37" shape="110.30,26.72 110.26,23.12 109.59,21.49"/>
    </edge>
    <edge id=":17_6" function="internal">
        <lane id=":17_6_0" index="0" speed="8.02" length="7.93" shape="109.59,21.49 109.10,20.30 106.84,18.27 103.46,17.01"/>
    </edge>
    <edge id=":17_4" function="internal">
        <lane id=":17_4_0" index="0" speed="6.52" length="8.46" shape="102.78,20.14 104.92,20.94 106.37,22.23 107.10,24.03 107.13,26.32"/>
    </edge>
    <edge id=":17_5" function="internal">
        <lane id=":17_5_0" index="0" speed="8.23" length="13.19" shape="102.78,20.14 106.35,20.44 109.31,19.63 111.66,17.71 113.41,14.68"/>
    </edge>
    <edge id=":2_0" function="internal">
        <lane id=":2_0_0" index="0" speed="7.20" length="10.06" shape="364.22,110.71 361.54,111.19 359.25,110.77 357.35,109.45 355.83,107.23"/>
    </edge>
    <edge id=":2_1" function="internal">
        <lane id=":2_1_0" index="0" speed="13.95" length="14.92" shape="364.22,110.71 360.68,111.91 357.18,113.19 353.72,114.55 350.28,116.01"/>
    </edge>
    <edge id=":2_2" function="internal">
        <lane id=":2_2_0" index="0" speed="7.78" length="14.43" shape="364.22,110.71 360.63,112.48 358.60,114.96 358.14,118.13 359.25,122.00"/>
    </edge>
    <edge id=":2_3" function="internal">
        <lane id=":2_3_0" index="0" speed="7.62" length="14.08" shape="364.22,110.71 360.61,112.46 358.59,114.86 358.16,117.91 359.31,121.59"/>
    </edge>
    <edge id=":2_4" function="internal">
        <lane id=":2_4_0" index="0" speed="6.34" length="9.04" shape="362.17,120.69 361.48,118.28 361.76,116.28 363.01,114.70 365.23,113.54"/>
    </edge>
    <edge id=":2_5" function="internal">
        <lane id=":2_5_0" index="0" speed="14.00" length="14.88" shape="362.17,120.69 355.83,107.23"/>
    </edge>
    <edge id=":2_6" function="internal">
        <lane id=":2_6_0" index="0" speed="8.12" length="14.54" shape="362.17,120.69 360.04,117.30 357.35,115.39 354.09,114.96 350.28,116.01"/>
    </edge>
    <edge id=":2_7" function="internal">
        <lane id=":2_7_0" index="0" speed="3.65" length="4.67" shape="362.17,120.69 360.95,119.92 360.06,119.88 359.49,120.57 359.25,122.00"/>
    </edge>
    <edge id=":2_8" function="internal">
        <lane id=":2_8_0" index="0" speed="3.19" length="3.00" shape="362.17,120.69 359.31,121.59"/>
    </edge>
    <edge id=":2_9" function="internal">
        <lane id=":2_9_0" index="0" speed="6.13" length="8.57" shape="362.19,120.20 361.51,118.00 361.79,116.15 363.03,114.67 365.23,113.54"/>
    </edge>
    <edge id=":2_10" function="internal">
        <lane id=":2_10_0" index="0" speed="14.00" length="14.44" shape="362.19,120.20 355.83,107.23"/>
    </edge>
    <edge id=":2_11" function="internal">
        <lane id=":2_11_0" index="0" speed="8.14" length="5.89" shape="362.19,120.20 360.03,117.03 358.30,115.91"/>
    </edge>
    <edge id=":2_12" function="internal">
        <lane id=":2_12_0" index="0" speed="3.32" length="1.84" shape="362.19,120.20 360.62,121.15"/>
    </edge>
    <edge id=":2_21" function="internal">
        <lane id=":2_21_0" index="0" speed="8.14" length="8.38" shape="358.30,115.91 357.33,115.27 354.08,114.93 350.28,116.01"/>
    </edge>
    <edge id=":2_22" function="internal">
        <lane id=":2_22_0" index="0" speed="3.32" length="1.61" shape="360.62,121.15 359.25,122.00"/>
    </edge>
    <edge id=":2_13" function="internal">
        <lane id=":2_13_0" index="0" speed="6.65" length="9.42" shape="351.56,118.94 354.02,118.26 356.13,118.55 357.87,119.79 359.25,122.00"/>
    </edge>
    <edge id=":2_14" function="internal">
        <lane id=":2_14_0" index="0" speed="6.67" length="9.26" shape="351.56,118.94 354.04,118.23 356.16,118.44 357.92,119.56 359.31,121.59"/>
    </edge>
    <edge id=":2_15" function="internal">
        <lane id=":2_15_0" index="0" speed="13.95" length="14.70" shape="351.56,118.94 365.23,113.54"/>
    </edge>
    <edge id=":2_16" function="internal">
        <lane id=":2_16_0" index="0" speed="7.92" length="14.38" shape="351.56,118.94 354.93,116.85 356.77,114.20 357.07,111.00 355.83,107.23"/>
    </edge>
    <edge id=":2_17" function="internal">
        <lane id=":2_17_0" index="0" speed="6.41" length="9.04" shape="352.96,108.64 353.74,111.01 353.55,113.03 352.40,114.69 350.28,116.01"/>
    </edge>
    <edge id=":2_18" function="internal">
        <lane id=":2_18_0" index="0" speed="14.00" length="14.76" shape="352.96,108.64 359.25,122.00"/>
    </edge>
    <edge id=":2_19" function="internal">
        <lane id=":2_19_0" index="0" speed="14.00" length="14.42" shape="352.96,108.64 359.31,121.59"/>
    </edge>
    <edge id=":2_20" function="internal">
        <lane id=":2_20_0" index="0" speed="8.50" length="6.04" shape="352.96,108.64 355.19,111.90 356.92,113.08"/>
    </edge>
    <edge id=":2_23" function="internal">
        <lane id=":2_23_0" index="0" speed="8.50" length="8.66" shape="356.92,113.08 357.98,113.80 361.32,114.35 365.23,113.54"/>
    </edge>
    <edge id=":22_0" function="internal">
        <lane id=":22_0_0" index="0" speed="6.61" length="9.02" shape="297.99,230.57 295.65,231.22 293.62,230.97 291.90,229.82 290.51,227.77"/>
    </edge>
    <edge id=":22_1" function="internal">
        <lane id=":22_1_0" index="0" speed="14.00" length="14.18" shape="297.99,230.57 285.19,236.66"/>
    </edge>
    <edge id=":22_2" function="internal">
        <lane id=":22_2_0" index="0" speed="14.00" length="13.99" shape="286.65,239.51 299.28,233.50"/>
    </edge>
    <edge id=":22_3" function="internal">
        <lane id=":22_3_0" index="0" speed="8.00" length="5.59" shape="286.65,239.51 289.78,237.29 290.71,235.81"/>
    </edge>
    <edge id=":22_6" function="internal">
        <lane id=":22_6_0" index="0" speed="8.00" length="8.46" shape="290.71,235.81 291.47,234.59 291.71,231.42 290.51,227.77"/>
    </edge>
    <edge id=":22_4" function="internal">
        <lane id=":22_4_0" index="0" speed="6.51" length="8.94" shape="287.64,229.19 288.41,231.51 288.25,233.53 287.18,235.25 285.19,236.66"/>
    </edge>
    <edge id=":22_5" function="internal">
        <lane id=":22_5_0" index="0" speed="8.09" length="14.00" shape="287.64,229.19 289.81,232.36 292.47,234.13 295.62,234.51 299.28,233.50"/>
    </edge>
    <edge id=":24_0" function="internal">
        <lane id=":24_0_0" index="0" speed="6.72" length="9.22" shape="54.39,246.09 53.45,248.46 52.01,250.02 50.06,250.76 47.60,250.68"/>
    </edge>
    <edge id=":24_1" function="internal">
        <lane id=":24_1_0" index="0" speed="7.98" length="14.23" shape="54.39,246.09 54.00,249.97 54.95,253.04 57.24,255.29 60.88,256.72"/>
    </edge>
    <edge id=":24_2" function="internal">
        <lane id=":24_2_0" index="0" speed="6.49" length="9.03" shape="61.62,253.60 59.31,252.69 57.85,251.27 57.25,249.32 57.50,246.86"/>
    </edge>
    <edge id=":24_3" function="internal">
        <lane id=":24_3_0" index="0" speed="14.00" length="14.31" shape="61.62,253.60 47.60,250.68"/>
    </edge>
    <edge id=":24_4" function="internal">
        <lane id=":24_4_0" index="0" speed="14.00" length="14.13" shape="47.04,253.83 60.88,256.72"/>
    </edge>
    <edge id=":24_5" function="internal">
        <lane id=":24_5_0" index="0" speed="8.18" length="5.57" shape="47.04,253.83 50.83,253.96 52.50,253.34"/>
    </edge>
    <edge id=":24_6" function="internal">
        <lane id=":24_6_0" index="0" speed="8.18" length="8.57" shape="52.50,253.34 53.84,252.84 56.06,250.47 57.50,246.86"/>
    </edge>
    <edge id=":25_0" function="internal">
        <lane id=":25_0_0" index="0" speed="14.00" length="14.52" shape="179.66,145.09 165.50,141.87"/>
    </edge>
    <edge id=":25_1" function="internal">
        <lane id=":25_1_0" index="0" speed="8.02" length="6.05" shape="179.66,145.09 175.78,144.73 173.73,145.38"/>
    </edge>
    <edge id=":25_6" function="internal">
        <lane id=":25_6_0" index="0" speed="8.02" length="8.21" shape="173.73,145.38 172.72,145.70 170.47,148.02 169.03,151.67"/>
    </edge>
    <edge id=":25_2" function="internal">
        <lane id=":25_2_0" index="0" speed="6.53" length="9.09" shape="172.14,152.41 173.06,150.08 174.49,148.60 176.44,147.97 178.91,148.20"/>
    </edge>
    <edge id=":25_3" function="internal">
        <lane id=":25_3_0" index="0" speed="7.96" length="14.28" shape="172.14,152.41 172.50,148.50 171.52,145.44 169.18,143.23 165.50,141.87"/>
    </edge>
    <edge id=":25_4" function="internal">
        <lane id=":25_4_0" index="0" speed="6.46" length="9.03" shape="164.83,145.00 167.16,145.86 168.64,147.26 169.26,149.19 169.03,151.67"/>
    </edge>
    <edge id=":25_5" function="internal">
        <lane id=":25_5_0" index="0" speed="14.00" length="14.44" shape="164.83,145.00 178.91,148.20"/>
    </edge>
    <edge id=":27_0" function="internal">
        <lane id=":27_0_0" index="0" speed="14.00" length="13.79" shape="92.82,126.31 79.44,122.93"/>
    </edge>
    <edge id=":27_1" function="internal">
        <lane id=":27_1_0" index="0" speed="8.01" length="5.51" shape="92.82,126.31 89.04,126.04 87.40,126.59"/>
    </edge>
    <edge id=":27_6" function="internal">
        <lane id=":27_6_0" index="0" speed="8.01" length="8.36" shape="87.40,126.59 86.05,127.04 83.85,129.29 82.43,132.80"/>
    </edge>
    <edge id=":27_2" function="internal">
        <lane id=":27_2_0" index="0" speed="6.51" length="8.83" shape="85.54,133.57 86.44,131.33 87.84,129.90 89.74,129.27 92.15,129.44"/>
    </edge>
    <edge id=":27_3" function="internal">
        <lane id=":27_3_0" index="0" speed="8.03" length="13.86" shape="85.54,133.57 85.92,129.80 85.04,126.78 82.88,124.48 79.44,122.93"/>
    </edge>
    <edge id=":27_4" function="internal">
        <lane id=":27_4_0" index="0" speed="6.54" length="8.85" shape="78.55,126.00 80.74,126.99 82.11,128.46 82.68,130.39 82.43,132.80"/>
    </edge>
    <edge id=":27_5" function="internal">
        <lane id=":27_5_0" index="0" speed="14.00" length="14.03" shape="78.55,126.00 92.15,129.44"/>
    </edge>
    <edge id=":4_0" function="internal">
        <lane id=":4_0_0" index="0" speed="14.00" length="14.40" shape="183.44,92.64 180.04,106.63"/>
    </edge>
    <edge id=":4_1" function="internal">
        <lane id=":4_1_0" index="0" speed="8.06" length="5.89" shape="183.44,92.64 183.07,96.49 183.68,98.42"/>
    </edge>
    <edge id=":4_6" function="internal">
        <lane id=":4_6_0" index="0" speed="8.06" length="8.32" shape="183.68,98.42 184.03,99.55 186.32,101.84 189.92,103.35"/>
    </edge>
    <edge id=":4_2" function="internal">
        <lane id=":4_2_0" index="0" speed="6.58" length="9.12" shape="190.73,100.25 188.41,99.28 186.94,97.82 186.32,95.85 186.55,93.40"/>
    </edge>
    <edge id=":4_3" function="internal">
        <lane id=":4_3_0" index="0" speed="7.97" length="14.26" shape="190.73,100.25 186.84,99.80 183.76,100.72 181.49,102.99 180.04,106.63"/>
    </edge>
    <edge id=":4_4" function="internal">
        <lane id=":4_4_0" index="0" speed="6.47" length="9.03" shape="183.15,107.39 184.07,105.08 185.51,103.64 187.46,103.06 189.92,103.35"/>
    </edge>
    <edge id=":4_5" function="internal">
        <lane id=":4_5_0" index="0" speed="14.00" length="14.40" shape="183.15,107.39 186.55,93.40"/>
    </edge>
    <edge id=":5_0" function="internal">
        <lane id=":5_0_0" index="0" speed="6.51" length="9.18" shape="232.10,140.29 231.23,142.70 229.82,144.24 227.88,144.90 225.40,144.69"/>
    </edge>
    <edge id=":5_1" function="internal">
        <lane id=":5_1_0" index="0" speed="7.87" length="14.49" shape="232.10,140.29 231.83,144.30 232.94,147.34 235.42,149.40 239.29,150.50"/>
    </edge>
    <edge id=":5_2" function="internal">
        <lane id=":5_2_0" index="0" speed="6.35" length="9.04" shape="239.71,147.32 237.30,146.64 235.75,145.35 235.06,143.46 235.23,140.96"/>
    </edge>
    <edge id=":5_3" function="internal">
        <lane id=":5_3_0" index="0" speed="14.00" length="14.56" shape="239.71,147.32 236.07,146.79 232.52,146.19 228.99,145.50 225.40,144.69"/>
    </edge>
    <edge id=":5_4" function="internal">
        <lane id=":5_4_0" index="0" speed="14.00" length="14.87" shape="224.67,147.81 228.31,148.62 231.94,149.33 235.60,149.96 239.29,150.50"/>
    </edge>
    <edge id=":5_5" function="internal">
        <lane id=":5_5_0" index="0" speed="8.00" length="6.11" shape="224.67,147.81 228.58,148.15 230.65,147.45"/>
    </edge>
    <edge id=":5_6" function="internal">
        <lane id=":5_6_0" index="0" speed="8.00" length="8.31" shape="230.65,147.45 231.64,147.12 233.86,144.72 235.23,140.96"/>
    </edge>
    <edge id=":6_0" function="internal">
        <lane id=":6_0_0" index="0" speed="6.58" length="9.10" shape="175.07,127.02 174.14,129.35 172.70,130.84 170.75,131.50 168.29,131.31"/>
    </edge>
    <edge id=":6_1" function="internal">
        <lane id=":6_1_0" index="0" speed="7.99" length="14.22" shape="175.07,127.02 174.69,130.91 175.65,133.97 177.94,136.21 181.57,137.64"/>
    </edge>
    <edge id=":6_2" function="internal">
        <lane id=":6_2_0" index="0" speed="6.49" length="9.03" shape="182.31,134.52 180.00,133.62 178.54,132.19 177.94,130.25 178.18,127.78"/>
    </edge>
    <edge id=":6_3" function="internal">
        <lane id=":6_3_0" index="0" speed="14.00" length="14.38" shape="182.31,134.52 168.29,131.31"/>
    </edge>
    <edge id=":6_4" function="internal">
        <lane id=":6_4_0" index="0" speed="14.00" length="14.34" shape="167.60,134.44 181.57,137.64"/>
    </edge>
    <edge id=":6_5" function="internal">
        <lane id=":6_5_0" index="0" speed="8.06" length="5.83" shape="167.60,134.44 171.44,134.73 173.32,134.10"/>
    </edge>
    <edge id=":6_6" function="internal">
        <lane id=":6_6_0" index="0" speed="8.06" length="8.35" shape="173.32,134.10 174.49,133.71 176.73,131.40 178.18,127.78"/>
    </edge>
    <edge id=":7_0" function="internal">
        <lane id=":7_0_0" index="0" speed="14.00" length="14.87" shape="214.45,1.64 210.83,0.75 207.21,-0.04 203.57,-0.75 199.90,-1.37"/>
    </edge>
    <edge id=":7_1" function="internal">
        <lane id=":7_1_0" index="0" speed="8.01" length="6.10" shape="214.45,1.64 210.55,1.22 208.47,1.87"/>
    </edge>
    <edge id=":7_6" function="internal">
        <lane id=":7_6_0" index="0" speed="8.01" length="8.33" shape="208.47,1.87 207.47,2.18 205.19,4.53 203.73,8.26"/>
    </edge>
    <edge id=":7_2" function="internal">
        <lane id=":7_2_0" index="0" speed="6.52" length="9.20" shape="206.84,9.00 207.78,6.61 209.22,5.10 211.18,4.47 213.65,4.73"/>
    </edge>
    <edge id=":7_3" function="internal">
        <lane id=":7_3_0" index="0" speed="7.87" length="14.50" shape="206.84,9.00 207.21,5.00 206.17,1.94 203.74,-0.19 199.90,-1.37"/>
    </edge>
    <edge id=":7_4" function="internal">
        <lane id=":7_4_0" index="0" speed="6.34" length="9.04" shape="199.40,1.79 201.79,2.53 203.31,3.85 203.96,5.76 203.73,8.26"/>
    </edge>
    <edge id=":7_5" function="internal">
        <lane id=":7_5_0" index="0" speed="14.00" length="14.55" shape="199.40,1.79 203.03,2.40 206.56,3.09 210.07,3.86 213.65,4.73"/>
    </edge>
    <edge id=":8_0" function="internal">
        <lane id=":8_0_0" index="0" speed="14.00" length="13.93" shape="35.45,104.52 31.67,117.93"/>
    </edge>
    <edge id=":8_1" function="internal">
        <lane id=":8_1_0" index="0" speed="8.06" length="5.56" shape="35.45,104.52 35.07,108.29 35.57,109.99"/>
    </edge>
    <edge id=":8_6" function="internal">
        <lane id=":8_6_0" index="0" speed="8.06" length="8.39" shape="35.57,109.99 35.97,111.33 38.16,113.63 41.64,115.20"/>
    </edge>
    <edge id=":8_2" function="internal">
        <lane id=":8_2_0" index="0" speed="6.57" length="8.94" shape="42.53,112.13 40.30,111.12 38.89,109.65 38.31,107.71 38.56,105.29"/>
    </edge>
    <edge id=":8_3" function="internal">
        <lane id=":8_3_0" index="0" speed="8.01" length="13.97" shape="42.53,112.13 38.75,111.59 35.68,112.37 33.32,114.49 31.67,117.93"/>
    </edge>
    <edge id=":8_4" function="internal">
        <lane id=":8_4_0" index="0" speed="6.51" length="8.89" shape="34.72,118.89 35.77,116.70 37.28,115.36 39.23,114.86 41.64,115.20"/>
    </edge>
    <edge id=":8_5" function="internal">
        <lane id=":8_5_0" index="0" speed="14.00" length="14.13" shape="34.72,118.89 38.56,105.29"/>
    </edge>

    <edge id="-gneE6" from="2" to="0" priority="-1" shape="357.66,114.53 374.18,108.65 383.77,106.83 395.67,107.58 407.69,118.28 415.39,132.45 414.59,148.01 411.55,161.69 402.45,172.92 385.86,177.53">
        <lane id="-gneE6_0" index="0" speed="13.89" length="113.11" shape="365.23,113.54 374.60,110.20 383.87,108.44 395.02,109.14 406.42,119.29 413.77,132.82 413.00,147.79 410.07,160.98 401.53,171.52 392.05,174.15"/>
    </edge>
    <edge id="10" from="15" to="17" priority="1" shape="88.27,115.18 107.21,38.34 109.55,19.99">
        <lane id="10_0" index="0" speed="14.00" length="87.96" shape="90.61,112.38 108.79,38.63 110.30,26.72"/>
    </edge>
    <edge id="12" from="2" to="0" priority="1">
        <lane id="12_0" index="0" speed="14.00" length="54.49" shape="359.25,122.00 381.51,171.73"/>
    </edge>
    <edge id="13" from="0" to="2" priority="1">
        <lane id="13_0" index="0" speed="14.00" length="54.61" shape="384.48,170.53 362.17,120.69"/>
    </edge>
    <edge id="14" from="22" to="10" priority="1" shape="292.23,234.84 242.32,260.51 235.57,276.35 228.28,281.08 223.18,280.36 216.99,279.63 178.36,271.25 164.52,267.97 158.32,264.69 148.98,255.27">
        <lane id="14_0" index="0" speed="14.00" length="152.27" shape="285.19,236.66 241.07,259.35 234.29,275.27 227.91,279.41 223.39,278.77 217.25,278.05 178.71,269.69 165.09,266.46 159.28,263.39 154.35,258.42"/>
    </edge>
    <edge id="16" from="5" to="4" priority="1" shape="232.11,147.92 234.69,135.82 232.10,127.74 228.07,119.95 221.26,112.99 214.03,107.87 196.26,103.35 183.31,99.96">
        <lane id="16_0" index="0" speed="14.00" length="67.71" shape="235.23,140.96 236.34,135.74 233.58,127.12 229.38,119.00 222.30,111.77 214.71,106.39 196.66,101.80 190.73,100.25"/>
    </edge>
    <edge id="17" from="4" to="5" priority="1" shape="183.31,99.96 196.26,103.35 214.03,107.87 221.26,112.99 228.07,119.95 232.10,127.74 234.69,135.82 232.11,147.92">
        <lane id="17_0" index="0" speed="14.00" length="62.77" shape="189.92,103.35 195.86,104.90 213.35,109.35 220.22,114.21 226.76,120.90 230.62,128.36 233.04,135.90 232.10,140.29"/>
    </edge>
    <edge id="19" from="4" to="7" priority="1" shape="183.31,99.96 193.17,59.33 207.02,1.37">
        <lane id="19_0" index="0" speed="14.00" length="86.80" shape="186.55,93.40 194.73,59.70 206.84,9.00"/>
    </edge>
    <edge id="20" from="25" to="27" priority="1">
        <lane id="20_0" index="0" speed="14.00" length="74.33" shape="165.50,141.87 92.82,126.31"/>
    </edge>
    <edge id="21" from="27" to="25" priority="1">
        <lane id="21_0" index="0" speed="14.00" length="74.33" shape="92.15,129.44 164.83,145.00"/>
    </edge>
    <edge id="22" from="8" to="17" priority="1" shape="35.32,111.69 57.92,20.71 59.77,17.82 62.48,14.21 66.39,12.10 70.91,11.50 109.55,19.99">
        <lane id="22_0" index="0" speed="14.00" length="134.19" shape="38.56,105.29 59.41,21.35 61.09,18.73 63.55,15.45 66.89,13.65 70.84,13.12 102.78,20.14"/>
    </edge>
    <edge id="23" from="17" to="8" priority="1" shape="109.55,19.99 70.91,11.50 66.39,12.10 62.48,14.21 59.77,17.82 57.92,20.71 35.32,111.69">
        <lane id="23_0" index="0" speed="14.00" length="139.18" shape="103.46,17.01 70.98,9.88 65.89,10.55 61.41,12.97 58.45,16.91 56.43,20.07 35.45,104.52"/>
    </edge>
    <edge id="27" from="2" to="0" priority="1" shape="357.66,114.53 374.15,148.51 385.86,177.53">
        <lane id="27_0" index="0" speed="14.00" length="54.87" shape="359.31,121.59 372.69,149.16 381.75,171.63"/>
    </edge>
    <edge id="28" from="6" to="4" priority="1">
        <lane id="28_0" index="0" speed="14.00" length="20.99" shape="178.18,127.78 183.15,107.39"/>
    </edge>
    <edge id="29" from="4" to="6" priority="1">
        <lane id="29_0" index="0" speed="14.00" length="20.99" shape="180.04,106.63 175.07,127.02"/>
    </edge>
    <edge id="3" from="10" to="25" priority="1" shape="148.98,255.27 158.18,207.42 168.32,161.50 172.28,144.96">
        <lane id="3_0" index="0" speed="14.00" length="100.38" shape="151.50,250.63 159.75,207.74 169.88,161.86 172.14,152.41"/>
    </edge>
    <edge id="30" from="8" to="24" priority="1" shape="35.32,111.69 22.33,152.83 17.27,165.48 12.92,179.52 6.46,206.08 -1.44,237.44 17.67,245.93 28.02,249.79 36.98,250.41 54.21,253.49">
        <lane id="30_0" index="0" speed="14.00" length="178.71" shape="31.67,117.93 20.82,152.29 15.76,164.95 11.38,179.09 4.91,205.70 -3.32,238.36 17.07,247.41 27.68,251.37 36.78,252.00 47.04,253.83"/>
    </edge>
    <edge id="32" from="2" to="12" priority="1" shape="357.66,114.53 301.02,0.00 267.49,16.99">
        <lane id="32_0" index="0" speed="14.00" length="154.22" shape="355.83,107.23 301.74,-2.16 273.02,12.39"/>
    </edge>