<?xml version="1.0" encoding="utf-8"?>
<nodes>
  <node id="0" x="407.4107" y="-193.9824" type="priority" />
  <node id="1" x="289.6073" y="-214.6848" type="priority" />
  <node id="2" x="375.8681" y="-257.653" type="priority" />
  <node id="3" x="259.0698" y="-115.6777" type="priority" />
  <node id="4" x="201.5161" y="-272.2169" type="priority" />
  <node id="5" x="250.3172" y="-224.2626" type="priority" />
  <node id="6" x="193.1133" y="-237.7599" type="priority" />
  <node id="7" x="225.2244" y="-370.8084" type="priority" />
  <node id="8" x="53.52221" y="-260.4877" type="priority" />
  <node id="9" x="319.2283" y="-372.1786" type="priority" />
  <node id="10" x="167.1897" y="-116.9132" type="priority" />
  <node id="11" x="223.3002" y="-219.3347" type="priority" />
  <node id="12" x="285.6983" y="-355.1865" type="priority" />
  <node id="13" x="392.3573" y="-223.6723" type="priority" />
  <node id="14" x="339.722" y="-240.8303" type="priority" />
  <node id="15" x="106.8536" y="-257.7486" type="priority" />
  <node id="16" x="117.51" y="-255.1568" type="priority" />
  <node id="17" x="129.5693" y="-351.2861" type="priority" />
  <node id="18" x="18.20681" y="-136.1474" type="priority" />
  <node id="19" x="125.4211" y="-333.8366" type="priority" />
  <node id="20" x="176.3886" y="-164.7612" type="priority" />
  <node id="21" x="211.3734" y="-312.8477" type="priority" />
  <node id="22" x="312.2787" y="-136.7063" type="priority" />
  <node id="23" x="290.0408" y="-206.1037" type="priority" />
  <node id="24" x="73.77342" y="-120.6837" type="priority" />
  <node id="25" x="190.484" y="-227.2201" type="priority" />
  <node id="26" x="186.5267" y="-210.6795" type="priority" />
  <node id="27" x="104.4266" y="-247.4531" type="priority" />
  <node id="28" x="136.138" y="-331.3335" type="priority" />
  <node id="29" x="407.4107" y="-193.9824" type="priority" />
  <node id="30" x="289.6073" y="-214.6848" type="priority" />
  <node id="31" x="375.8681" y="-257.653" type="priority" />
  <node id="32" x="259.0698" y="-115.6777" type="priority" />
  <node id="33" x="201.5161" y="-272.2169" type="priority" />
  <node id="34" x="250.3172" y="-224.2626" type="priority" />
  <node id="35" x="193.1133" y="-237.7599" type="priority" />
  <node id="36" x="225.2244" y="-370.8084" type="priority" />
  <node id="37" x="53.52221" y="-260.4877" type="priority" />
  <node id="38" x="319.2283" y="-372.1786" type="priority" />
  <node id="39" x="167.1897" y="-116.9132" type="priority" />
  <node id="40" x="223.3002" y="-219.3347" type="priority" />
  <node id="41" x="285.6983" y="-355.1865" type="priority" />
  <node id="42" x="392.3573" y="-223.6723" type="priority" />
  <node id="43" x="339.722" y="-240.8303" type="priority" />
  <node id="44" x="106.8536" y="-257.7486" type="priority" />
  <node id="45" x="117.51" y="-255.1568" type="priority" />
  <node id="46" x="129.5693" y="-351.2861" type="priority" />
  <node id="47" x="18.20681" y="-136.1474" type="priority" />
  <node id="48" x="125.4211" y="-333.8366" type="priority" />
  <node id="49" x="176.3886" y="-164.7612" type="priority" />
  <node id="50" x="211.3734" y="-312.8477" type="priority" />
  <node id="51" x="312.2787" y="-136.7063" type="priority" />
  <node id="52" x="290.0408" y="-206.1037" type="priority" />
  <node id="53" x="73.77342" y="-120.6837" type="priority" />
  <node id="54" x="190.484" y="-227.2201" type="priority" />
  <node id="55" x="186.5267" y="-210.6795" type="priority" />
  <node id="56" x="104.4266" y="-247.4531" type="priority" />
  <node id="57" x="136.138" y="-331.3335" type="priority" />
</nodes>