<?xml version="1.0" encoding="UTF-8"?>

<!-- generated on 04/03/19 11:14:19 by Eclipse SUMO duarouter Version 1.1.0
<configuration xmlns:xsi="http://www.w3.org/2001/XMLSchema-instance" xsi:noNamespaceSchemaLocation="http://sumo.dlr.de/xsd/duarouterConfiguration.xsd">

    <input>
        <net-file value="net.net.xml"/>
        <route-files value="trips.trips.xml"/>
    </input>

    <output>
        <output-file value="out-10-10/./rou10.rou.xml"/>
        <alternatives-output value="out-10-10/./rou10.rou.alt.xml"/>
    </output>

    <time>
        <begin value="1.0"/>
        <end value="101.0"/>
    </time>

    <report>
        <no-warnings value="true"/>
        <ignore-errors value="true"/>
        <no-step-log value="true"/>
    </report>

</configuration>
-->

<routes xmlns:xsi="http://www.w3.org/2001/XMLSchema-instance" xsi:noNamespaceSchemaLocation="http://sumo.dlr.de/xsd/routes_file.xsd">
    <vehicle id="0" depart="1.00">
        <route edges="K4K5 K5J5 J5I5 I5H5 H5G5 G5F5 F5E5 E5D5 D5C5 C5B5 B5B4 B4B3 B3B2 B2B1"/>
    </vehicle>
    <vehicle id="1" depart="11.00">
        <route edges="I4J4 J4I4 I4H4 H4G4 G4F4 F4E4 E4D4 D4C4 C4C5 C5C6 C6C7 C7C8 C8D8 D8E8 E8F8 F8G8 G8F8"/>
    </vehicle>
    <vehicle id="2" depart="21.00">
        <route edges="F6E6 E6D6 D6C6 C6B6 B6B5 B5B4 B4B3 B3B2 B2C2 C2D2 D2E2 E2F2 F2G2 G2H2 H2G2"/>
    </vehicle>
    <vehicle id="3" depart="31.00">
        <route edges="J5I5 I5H5 H5G5 G5F5 F5F4 F4F3 F3F2 F2F3"/>
    </vehicle>
    <vehicle id="4" depart="41.00">
        <route edges="H3I3 I3H3 H3G3 G3F3 F3E3 E3D3 D3C3 C3C4 C4C5 C5C6 C6C7 C7D7 D7E7 E7E6"/>
    </vehicle>
    <vehicle id="5" depart="51.00">
        <route edges="C1B1 B1C1 C1D1 D1D10"/>
    </vehicle>
    <vehicle id="6" depart="61.00">
        <route edges="D9D8 D8D9 D9D10 D10E10 E10D10"/>
    </vehicle>
    <vehicle id="7" depart="71.00">
        <route edges="D5D4 D4C4 C4B4 B4B3 B3B2 B2B1 B1B10 B10C10 C10D10 D10E10 E10F10 F10G10 G10H10 H10G10"/>
    </vehicle>
    <vehicle id="8" depart="81.00">
        <route edges="H5H4 H4G4 G4F4 F4E4 E4D4 D4C4 C4B4 B4B3 B3B2 B2B1 B1B10 B10C10 C10D10 D10E10 E10F10 F10G10 G10H10 H10I10 I10H10"/>
    </vehicle>
    <vehicle id="9" depart="91.00">
        <route edges="C4B4 B4C4 C4D4 D4E4 E4F4 F4E4"/>
    </vehicle>
</routes>
