<?xml version="1.0" encoding="UTF-8"?>

<!-- generated on 04/03/19 11:14:19 by Eclipse SUMO duarouter Version 1.1.0
<configuration xmlns:xsi="http://www.w3.org/2001/XMLSchema-instance" xsi:noNamespaceSchemaLocation="http://sumo.dlr.de/xsd/duarouterConfiguration.xsd">

    <input>
        <net-file value="net.net.xml"/>
        <route-files value="trips.trips.xml"/>
    </input>

    <output>
        <output-file value="out-10-10/./rou50.rou.xml"/>
        <alternatives-output value="out-10-10/./rou50.rou.alt.xml"/>
    </output>

    <time>
        <begin value="1.0"/>
        <end value="101.0"/>
    </time>

    <report>
        <no-warnings value="true"/>
        <ignore-errors value="true"/>
        <no-step-log value="true"/>
    </report>

</configuration>
-->

<routes xmlns:xsi="http://www.w3.org/2001/XMLSchema-instance" xsi:noNamespaceSchemaLocation="http://sumo.dlr.de/xsd/routes_file.xsd">
    <vehicle id="0" depart="1.00">
        <route edges="F8E8 E8D8 D8C8 C8B8 B8B7 B7B6 B6B5 B5B4 B4C4 C4D4 D4E4 E4F4 F4G4 G4F4"/>
    </vehicle>
    <vehicle id="1" depart="3.00">
        <route edges="D4C4 C4C5 C5C4"/>
    </vehicle>
    <vehicle id="2" depart="5.00">
        <route edges="E7D7 D7E7 E7F7 F7G7"/>
    </vehicle>
    <vehicle id="3" depart="7.00">
        <route edges="G3F3 F3E3 E3D3 D3C3 C3B3 B3B2 B2B1 B1B10 B10B9 B9C9 C9D9 D9E9 E9F9 F9G9"/>
    </vehicle>
    <vehicle id="4" depart="9.00">
        <route edges="I1I2 I2H2 H2G2 G2F2 F2E2 E2D2 D2C2 C2C1 C1C10"/>
    </vehicle>
    <vehicle id="5" depart="11.00">
        <route edges="F3G3 G3F3 F3E3 E3D3 D3C3 C3C4 C4C5 C5C6 C6C7 C7D7 D7E7 E7F7 F7E7"/>
    </vehicle>
    <vehicle id="6" depart="13.00">
        <route edges="C8C9 C9C10 C10C1 C1C2 C2C3 C3D3 D3E3 E3F3 F3G3 G3H3 H3I3 I3J3 J3K3 K3K2"/>
    </vehicle>
    <vehicle id="7" depart="15.00">
        <route edges="I7J7 J7I7 I7H7 H7G7 G7F7 F7E7 E7D7 D7C7 C7B7 B7B6 B6B5 B5B4 B4B3 B3C3 C3D3 D3E3 E3F3 F3G3"/>
    </vehicle>
    <vehicle id="8" depart="17.00">
        <route edges="B1B10 B10B1 B1B2 B2B3 B3B4 B4C4 C4D4 D4E4 E4F4 F4G4 G4H4 H4I4 I4J4 J4K4"/>
    </vehicle>
    <vehicle id="9" depart="19.00">
        <route edges="D10E10 E10D10 D10C10 C10C1 C1C2 C2C3 C3C4 C4D4 D4E4 E4F4 F4G4 G4H4 H4I4 I4J4 J4J5"/>
    </vehicle>
    <vehicle id="10" depart="21.00">
        <route edges="I5J5 J5I5 I5H5 H5G5 G5F5 F5E5 E5D5 D5C5 C5C4 C4C3 C3C2 C2B2"/>
    </vehicle>
    <vehicle id="11" depart="23.00">
        <route edges="G7H7 H7G7 G7F7 F7F6 F6F5 F5F4 F4E4"/>
    </vehicle>
    <vehicle id="12" depart="25.00">
        <route edges="C6C5 C5C6 C6B6"/>
    </vehicle>
    <vehicle id="13" depart="27.00">
        <route edges="B8C8 C8B8 B8B9"/>
    </vehicle>
    <vehicle id="14" depart="29.00">
        <route edges="E8D8 D8C8 C8C9 C9C10 C10C1 C1C2 C2D2 D2E2 E2F2 F2G2"/>
    </vehicle>
    <vehicle id="15" depart="31.00">
        <route edges="K5K6 K6K5 K5J5 J5J4 J4I4"/>
    </vehicle>
    <vehicle id="16" depart="33.00">
        <route edges="F4G4 G4G3 G3G2 G2H2 H2I2 I2H2"/>
    </vehicle>
    <vehicle id="17" depart="35.00">
        <route edges="D3D2 D2C2 C2B2 B2B1 B1B10 B10B9 B9B8 B8C8 C8D8 D8E8 E8D8"/>
    </vehicle>
    <vehicle id="18" depart="37.00">
        <route edges="B8B7 B7C7 C7D7 D7E7 E7F7 F7G7 G7F7"/>
    </vehicle>
    <vehicle id="19" depart="39.00">
        <route edges="J2I2 I2H2 H2G2 G2F2 F2E2 E2D2 D2C2 C2C3 C3C4 C4C5 C5C6 C6D6 D6E6 E6F6 F6G6 G6H6 H6I6 I6J6"/>
    </vehicle>
    <vehicle id="20" depart="41.00">
        <route edges="G8G9 G9G8 G8G7 G7H7"/>
    </vehicle>
    <vehicle id="21" depart="43.00">
        <route edges="F7G7 G7G6 G6G5 G5G4 G4H4 H4I4 I4J4 J4I4"/>
    </vehicle>
    <vehicle id="22" depart="45.00">
        <route edges="I8J8 J8I8 I8H8 H8G8 G8F8 F8E8 E8D8 D8C8 C8C9 C9C10 C10C1 C1C2 C2C3"/>
    </vehicle>
    <vehicle id="23" depart="47.00">
        <route edges="I2J2 J2J1 J1J10 J10K10 K10K1"/>
    </vehicle>
    <vehicle id="24" depart="49.00">
        <route edges="D3D2 D2D3 D3D4 D4D5 D5D6 D6E6 E6F6 F6G6 G6H6 H6I6 I6J6 J6J7"/>
    </vehicle>
    <vehicle id="25" depart="51.00">
        <route edges="C6D6 D6C6 C6C7 C7C8 C8C9 C9C10 C10D10 D10E10 E10F10 F10G10 G10H10 H10I10 I10J10 J10K10 K10J10"/>
    </vehicle>
    <vehicle id="26" depart="53.00">
        <route edges="G10G1 G1F1 F1E1 E1D1 D1D2 D2D3 D3D4 D4D5"/>
    </vehicle>
    <vehicle id="27" depart="55.00">
        <route edges="F7E7 E7D7 D7C7 C7B7 B7B8 B8B9 B9B10 B10B1 B1B2 B2C2 C2D2 D2E2 E2F2 F2G2 G2H2 H2I2 I2J2 J2K2 K2J2"/>
    </vehicle>
    <vehicle id="28" depart="57.00">
        <route edges="J2K2 K2J2 J2I2 I2H2 H2G2 G2F2 F2E2 E2D2 D2C2 C2B2 B2B3 B3B4 B4B5 B5B6 B6B7 B7C7 C7D7"/>
    </vehicle>
    <vehicle id="29" depart="59.00">
        <route edges="C3C2 C2C1 C1C10 C10C9 C9C8 C8D8 D8E8 E8E7"/>
    </vehicle>
    <vehicle id="30" depart="61.00">
        <route edges="K7K6 K6J6 J6I6"/>
    </vehicle>
    <vehicle id="31" depart="63.00">
        <route edges="H6H7 H7H8 H8H9 H9H10"/>
    </vehicle>
    <vehicle id="32" depart="65.00">
        <route edges="D4D3 D3C3 C3B3 B3B4 B4B5 B5B6 B6B7 B7B8 B8C8 C8D8 D8E8 E8F8 F8G8 G8H8 H8I8 I8H8"/>
    </vehicle>
    <vehicle id="33" depart="67.00">
        <route edges="B2B3 B3B2 B2B1 B1B10 B10C10 C10C1"/>
    </vehicle>
    <vehicle id="34" depart="69.00">
        <route edges="F3G3 G3F3 F3E3 E3E4 E4E5 E5E6 E6D6"/>
    </vehicle>
    <vehicle id="35" depart="71.00">
        <route edges="C6B6 B6B7 B7C7 C7D7 D7D8"/>
    </vehicle>
    <vehicle id="36" depart="73.00">
        <route edges="H3I3 I3H3 H3G3 G3F3 F3E3 E3E2 E2E1 E1E10 E10E9"/>
    </vehicle>
    <vehicle id="37" depart="75.00">
        <route edges="F5G5 G5F5 F5E5 E5D5 D5C5 C5C6 C6C7 C7C8 C8C9 C9D9 D9E9 E9F9 F9G9 G9H9 H9I9 I9J9 J9K9"/>
    </vehicle>
    <vehicle id="38" depart="77.00">
        <route edges="H4H5 H5G5 G5F5 F5E5 E5D5 D5C5 C5B5 B5B6 B6B7 B7B8 B8B7"/>
    </vehicle>
    <vehicle id="39" depart="79.00">
        <route edges="E1E2 E2E3 E3E4 E4F4 F4G4 G4F4"/>
    </vehicle>
    <vehicle id="40" depart="81.00">
        <route edges="H2I2 I2H2 H2G2 G2F2 F2E2 E2D2 D2C2 C2C3 C3C4 C4C5 C5C6 C6D6 D6E6 E6D6"/>
    </vehicle>
    <vehicle id="41" depart="83.00">
        <route edges="H3G3 G3F3 F3E3 E3D3 D3C3 C3B3 B3B4 B4B5 B5C5"/>
    </vehicle>
    <vehicle id="42" depart="85.00">
        <route edges="I1J1 J1J10 J10K10"/>
    </vehicle>
    <vehicle id="43" depart="87.00">
        <route edges="E7F7 F7E7 E7D7 D7C7 C7B7 B7B8 B8B9 B9B10 B10B1 B1B2 B2C2 C2D2 D2E2 E2F2 F2G2 G2H2 H2I2 I2I3"/>
    </vehicle>
    <vehicle id="44" depart="89.00">
        <route edges="H6H7 H7G7 G7F7 F7E7 E7D7 D7C7 C7B7 B7B6 B6B5"/>
    </vehicle>
    <vehicle id="45" depart="91.00">
        <route edges="J6I6 I6I5 I5I4 I4J4 J4K4 K4J4"/>
    </vehicle>
    <vehicle id="46" depart="93.00">
        <route edges="I2I3"/>
    </vehicle>
    <vehicle id="47" depart="95.00">
        <route edges="I10J10 J10I10 I10H10 H10G10 G10F10 F10E10 E10D10 D10D1 D1D2"/>
    </vehicle>
    <vehicle id="48" depart="97.00">
        <route edges="J3K3 K3J3 J3I3 I3H3 H3G3 G3G2 G2H2"/>
    </vehicle>
    <vehicle id="49" depart="99.00">
        <route edges="C9C10 C10C1 C1C2 C2C3 C3D3 D3D2"/>
    </vehicle>
</routes>
