<?xml version="1.0" encoding="UTF-8"?>

<!-- generated on 04/03/19 11:14:22 by Eclipse SUMO duarouter Version 1.1.0
<configuration xmlns:xsi="http://www.w3.org/2001/XMLSchema-instance" xsi:noNamespaceSchemaLocation="http://sumo.dlr.de/xsd/duarouterConfiguration.xsd">

    <input>
        <net-file value="net.net.xml"/>
        <route-files value="trips.trips.xml"/>
    </input>

    <output>
        <output-file value="out-10-10/./rou500.rou.xml"/>
        <alternatives-output value="out-10-10/./rou500.rou.alt.xml"/>
    </output>

    <time>
        <begin value="1.0"/>
        <end value="101.0"/>
    </time>

    <report>
        <no-warnings value="true"/>
        <ignore-errors value="true"/>
        <no-step-log value="true"/>
    </report>

</configuration>
-->

<routes xmlns:xsi="http://www.w3.org/2001/XMLSchema-instance" xsi:noNamespaceSchemaLocation="http://sumo.dlr.de/xsd/routes_file.xsd">
    <vehicle id="0" depart="1.00">
        <route edges="G2H2 H2G2 G2F2 F2E2 E2D2 D2C2 C2C3 C3C2"/>
    </vehicle>
    <vehicle id="1" depart="1.20">
        <route edges="C5C4 C4C5 C5D5 D5C5"/>
    </vehicle>
    <vehicle id="2" depart="1.40">
        <route edges="I9I8 I8H8 H8G8 G8F8 F8E8 E8D8 D8D7 D7D6 D6D5 D5D4"/>
    </vehicle>
    <vehicle id="3" depart="1.60">
        <route edges="J1J10 J10I10 I10H10 H10G10 G10F10 F10F1 F1F2 F2F3"/>
    </vehicle>
    <vehicle id="4" depart="1.80">
        <route edges="E2E1 E1D1 D1C1 C1B1 B1B2 B2B3 B3B4 B4B5 B5B6 B6C6 C6D6 D6E6 E6F6 F6E6"/>
    </vehicle>
    <vehicle id="5" depart="2.00">
        <route edges="B10B1 B1C1 C1D1 D1C1"/>
    </vehicle>
    <vehicle id="6" depart="2.20">
        <route edges="D5D6 D6E6 E6F6 F6G6 G6H6 H6I6 I6J6 J6K6"/>
    </vehicle>
    <vehicle id="7" depart="2.40">
        <route edges="E8D8 D8C8 C8C9 C9C10 C10C1 C1C2 C2D2 D2E2 E2F2 F2G2"/>
    </vehicle>
    <vehicle id="8" depart="2.60">
        <route edges="H8H9 H9G9 G9F9 F9E9 E9D9 D9C9 C9C10 C10C1 C1C2 C2C3 C3D3 D3E3 E3F3 F3G3 G3H3 H3I3 I3J3 J3I3"/>
    </vehicle>
    <vehicle id="9" depart="2.80">
        <route edges="D5C5 C5B5 B5B4 B4B3 B3B2 B2B1 B1C1 C1D1 D1D10"/>
    </vehicle>
    <vehicle id="10" depart="3.00">
        <route edges="K10K9 K9J9 J9J8 J8J7 J7J8"/>
    </vehicle>
    <vehicle id="11" depart="3.20">
        <route edges="K8K7 K7J7 J7I7 I7H7 H7G7 G7F7 F7E7 E7D7 D7C7 C7B7 B7B6 B6B5 B5B4 B4B3 B3C3 C3D3 D3E3 E3F3 F3G3 G3H3 H3G3"/>
    </vehicle>
    <vehicle id="12" depart="3.40">
        <route edges="G9G8 G8F8 F8E8 E8D8 D8C8 C8B8 B8B7 B7B6 B6B5 B5B4 B4C4 C4D4 D4E4 E4F4 F4G4 G4H4 H4I4 I4J4"/>
    </vehicle>
    <vehicle id="13" depart="3.60">
        <route edges="K5K6 K6J6 J6I6 I6H6 H6H7 H7H6"/>
    </vehicle>
    <vehicle id="14" depart="3.80">
        <route edges="K1K2 K2J2 J2I2 I2H2 H2G2 G2F2 F2E2 E2D2 D2C2 C2C3 C3C4 C4C5 C5C6 C6D6 D6D7"/>
    </vehicle>
    <vehicle id="15" depart="4.00">
        <route edges="J2K2 K2J2 J2I2 I2H2 H2G2 G2F2 F2E2 E2D2 D2C2 C2B2 B2B1 B1B10 B10B9 B9B8 B8C8 C8D8 D8E8 E8F8 F8G8 G8H8 H8I8 I8J8 J8K8 K8K7"/>
    </vehicle>
    <vehicle id="16" depart="4.20">
        <route edges="G6G5 G5G6 G6H6"/>
    </vehicle>
    <vehicle id="17" depart="4.40">
        <route edges="K5K4 K4J4 J4I4 I4I5 I5I6 I6I7 I7J7"/>
    </vehicle>
    <vehicle id="18" depart="4.60">
        <route edges="B6B5 B5B4 B4C4 C4D4 D4E4 E4F4 F4G4 G4H4 H4I4"/>
    </vehicle>
    <vehicle id="19" depart="4.80">
        <route edges="F9F8 F8E8 E8D8 D8C8 C8B8 B8B7 B7B6 B6B5 B5B4 B4C4 C4D4 D4E4 E4F4 F4G4 G4H4 H4I4 I4I3"/>
    </vehicle>
    <vehicle id="20" depart="5.00">
        <route edges="F1F2 F2E2 E2D2 D2C2 C2C3 C3C4 C4C5 C5C6 C6D6 D6E6 E6F6 F6G6 G6H6 H6H7"/>
    </vehicle>
    <vehicle id="21" depart="5.20">
        <route edges="G9F9 F9G9 G9G8 G8H8 H8I8 I8J8 J8K8 K8K7"/>
    </vehicle>
    <vehicle id="22" depart="5.40">
        <route edges="F6E6 E6E7 E7E8 E8E9 E9F9 F9G9 G9H9 H9I9 I9J9 J9K9"/>
    </vehicle>
    <vehicle id="23" depart="5.60">
        <route edges="H2H3 H3H4 H4I4 I4J4 J4K4"/>
    </vehicle>
    <vehicle id="24" depart="5.80">
        <route edges="C2D2 D2C2 C2C3 C3D3"/>
    </vehicle>
    <vehicle id="25" depart="6.00">
        <route edges="D7D8 D8E8 E8F8 F8G8 G8H8 H8I8 I8I9"/>
    </vehicle>
    <vehicle id="26" depart="6.20">
        <route edges="D6D7 D7E7 E7F7 F7G7 G7H7 H7I7 I7J7 J7J8"/>
    </vehicle>
    <vehicle id="27" depart="6.40">
        <route edges="J9K9 K9J9 J9J8 J8J9"/>
    </vehicle>
    <vehicle id="28" depart="6.60">
        <route edges="G3G4 G4F4 F4E4 E4D4 D4C4 C4B4 B4B3 B3B2 B2B1 B1B10 B10B1"/>
    </vehicle>
    <vehicle id="29" depart="6.80">
        <route edges="C6C7 C7C8 C8C9 C9C10 C10D10 D10E10 E10F10 F10G10 G10G9"/>
    </vehicle>
    <vehicle id="30" depart="7.00">
        <route edges="B4B3 B3B4 B4B5 B5B6 B6B7 B7B8 B8C8 C8D8 D8E8 E8F8 F8G8 G8H8 H8I8 I8J8"/>
    </vehicle>
    <vehicle id="31" depart="7.20">
        <route edges="C10D10 D10D9 D9D8 D8D7 D7C7"/>
    </vehicle>
    <vehicle id="32" depart="7.40">
        <route edges="F9E9 E9D9 D9C9 C9C10 C10C1 C1C2 C2C3 C3D3 D3E3 E3F3 F3G3 G3H3 H3H4"/>
    </vehicle>
    <vehicle id="33" depart="7.60">
        <route edges="E4E3 E3D3 D3C3 C3B3 B3B2 B2B1 B1B10 B10B9 B9C9 C9D9 D9E9 E9F9 F9G9 G9H9 H9G9"/>
    </vehicle>
    <vehicle id="34" depart="7.80">
        <route edges="H2H3 H3G3 G3F3 F3E3 E3D3 D3C3 C3C4 C4C5 C5C6 C6C7 C7D7 D7E7 E7F7 F7G7 G7H7 H7H6"/>
    </vehicle>
    <vehicle id="35" depart="8.00">
        <route edges="D8E8 E8D8 D8C8 C8C7 C7C6 C6C5 C5B5"/>
    </vehicle>
    <vehicle id="36" depart="8.20">
        <route edges="H9H8 H8I8 I8I7"/>
    </vehicle>
    <vehicle id="37" depart="8.40">
        <route edges="B10C10 C10B10 B10B1 B1B2 B2B3 B3B4 B4B5 B5C5 C5D5 D5E5 E5F5 F5G5 G5H5 H5I5 I5J5 J5K5 K5K6"/>
    </vehicle>
    <vehicle id="38" depart="8.60">
        <route edges="J8J9 J9I9 I9I8 I8J8"/>
    </vehicle>
    <vehicle id="39" depart="8.80">
        <route edges="F10F1 F1E1 E1D1 D1C1 C1B1 B1B2 B2B3 B3B4 B4B5 B5B6 B6B7"/>
    </vehicle>
    <vehicle id="40" depart="9.00">
        <route edges="B9B10 B10B1 B1B2 B2C2 C2C3"/>
    </vehicle>
    <vehicle id="41" depart="9.20">
        <route edges="C5C6 C6C7 C7C8 C8D8 D8E8 E8E9"/>
    </vehicle>
    <vehicle id="42" depart="9.40">
        <route edges="F10F9 F9E9 E9D9 D9C9 C9B9 B9B8 B8B7 B7B6 B6B5 B5C5 C5D5 D5E5 E5F5 F5G5 G5H5 H5I5 I5I4"/>
    </vehicle>
    <vehicle id="43" depart="9.60">
        <route edges="G2F2 F2E2 E2D2 D2C2 C2C3 C3C4 C4C5 C5C6 C6D6 D6E6 E6F6 F6G6 G6H6 H6I6 I6H6"/>
    </vehicle>
    <vehicle id="44" depart="9.80">
        <route edges="H7H6 H6H5 H5H4 H4H3 H3G3"/>
    </vehicle>
    <vehicle id="45" depart="10.00">
        <route edges="J4J3 J3I3 I3H3 H3G3 G3G4 G4G5 G5G6 G6G7"/>
    </vehicle>
    <vehicle id="46" depart="10.20">
        <route edges="J7J6 J6I6 I6H6 H6G6 G6F6 F6F7 F7F8 F8F9"/>
    </vehicle>
    <vehicle id="47" depart="10.40">
        <route edges="J6K6 K6J6 J6I6 I6H6 H6H5 H5G5"/>
    </vehicle>
    <vehicle id="48" depart="10.60">
        <route edges="G6H6 H6G6 G6F6 F6E6 E6D6 D6D7 D7C7"/>
    </vehicle>
    <vehicle id="49" depart="10.80">
        <route edges="D1C1 C1B1 B1B2 B2B3 B3B4 B4B5 B5B6 B6C6 C6D6 D6E6 E6F6 F6G6 G6H6 H6I6 I6J6 J6K6 K6J6"/>
    </vehicle>
    <vehicle id="50" depart="11.00">
        <route edges="C2C3 C3C4 C4B4"/>
    </vehicle>
    <vehicle id="51" depart="11.20">
        <route edges="G5H5 H5G5 G5G6 G6G5"/>
    </vehicle>
    <vehicle id="52" depart="11.40">
        <route edges="F10G10 G10G9 G9G8 G8H8"/>
    </vehicle>
    <vehicle id="53" depart="11.60">
        <route edges="J5I5 I5H5 H5G5 G5F5 F5E5 E5D5 D5C5 C5C6 C6C7 C7C8 C8C9 C9D9"/>
    </vehicle>
    <vehicle id="54" depart="11.80">
        <route edges="C1D1 D1C1 C1C2 C2C3 C3C4"/>
    </vehicle>
    <vehicle id="55" depart="12.00">
        <route edges="D1E1 E1D1 D1C1 C1C2 C2C3 C3C4 C4C5 C5D5 D5E5 E5D5"/>
    </vehicle>
    <vehicle id="56" depart="12.20">
        <route edges="F4F5 F5G5 G5H5 H5I5"/>
    </vehicle>
    <vehicle id="57" depart="12.40">
        <route edges="J9J8 J8I8 I8H8 H8G8 G8F8 F8E8 E8E9 E9E10 E10E9"/>
    </vehicle>
    <vehicle id="58" depart="12.60">
        <route edges="J7J6 J6I6 I6I5 I5I4 I4I3 I3I4"/>
    </vehicle>
    <vehicle id="59" depart="12.80">
        <route edges="G4G5 G5F5 F5E5 E5D5 D5C5 C5B5 B5B4 B4B3 B3B2 B2B1 B1C1 C1D1 D1E1 E1F1 F1G1 G1H1 H1I1 I1J1 J1K1 K1K2"/>
    </vehicle>
    <vehicle id="60" depart="13.00">
        <route edges="D6E6 E6E7 E7F7 F7G7 G7H7 H7I7 I7J7 J7K7 K7K8"/>
    </vehicle>
    <vehicle id="61" depart="13.20">
        <route edges="B10C10 C10B10 B10B1 B1B2 B2B3 B3B4 B4B5 B5C5 C5B5"/>
    </vehicle>
    <vehicle id="62" depart="13.40">
        <route edges="H4H5 H5H4 H4H3 H3H2"/>
    </vehicle>
    <vehicle id="63" depart="13.60">
        <route edges="H8H9 H9H10 H10H1 H1I1 I1J1 J1J10"/>
    </vehicle>
    <vehicle id="64" depart="13.80">
        <route edges="J5I5 I5H5 H5G5 G5F5 F5E5 E5D5 D5C5 C5B5 B5B4 B4B3 B3B2 B2B1 B1C1 C1D1 D1E1 E1F1 F1F2"/>
    </vehicle>
    <vehicle id="65" depart="14.00">
        <route edges="E2F2 F2E2 E2D2 D2C2 C2B2 B2B1 B1B10 B10B9 B9B8 B8B9"/>
    </vehicle>
    <vehicle id="66" depart="14.20">
        <route edges="K10J10 J10J1 J1J2 J2K2 K2J2"/>
    </vehicle>
    <vehicle id="67" depart="14.40">
        <route edges="D1D10 D10C10 C10B10 B10B1 B1B2 B2B3 B3B4 B4B5 B5C5 C5D5 D5E5 E5F5 F5G5 G5H5 H5I5 I5I6"/>
    </vehicle>
    <vehicle id="68" depart="14.60">
        <route edges="K4K3 K3J3 J3I3 I3J3"/>
    </vehicle>
    <vehicle id="69" depart="14.80">
        <route edges="J1J10 J10I10 I10H10 H10G10 G10F10 F10E10 E10D10 D10D1 D1D2 D2C2"/>
    </vehicle>
    <vehicle id="70" depart="15.00">
        <route edges="K9K8 K8J8 J8I8 I8I7 I7I6 I6I5"/>
    </vehicle>
    <vehicle id="71" depart="15.20">
        <route edges="H6I6 I6H6 H6G6 G6F6 F6E6 E6D6 D6C6 C6B6 B6B5 B5B4 B4B3 B3B2 B2C2 C2D2 D2E2 E2F2 F2G2 G2H2 H2G2"/>
    </vehicle>
    <vehicle id="72" depart="15.40">
        <route edges="J10K10 K10J10 J10I10 I10H10 H10G10 G10G1 G1G2 G2G3 G3G4"/>
    </vehicle>
    <vehicle id="73" depart="15.60">
        <route edges="C3C2 C2B2 B2B1 B1B10 B10B9 B9B8"/>
    </vehicle>
    <vehicle id="74" depart="15.80">
        <route edges="D3E3 E3D3 D3C3 C3C2 C2C1 C1C10"/>
    </vehicle>
    <vehicle id="75" depart="16.00">
        <route edges="C5C4 C4C5 C5C6 C6D6 D6E6 E6F6 F6G6 G6H6 H6I6 I6J6 J6K6 K6J6"/>
    </vehicle>
    <vehicle id="76" depart="16.20">
        <route edges="J9K9 K9J9 J9I9 I9H9 H9G9 G9G8 G8G7 G7G6"/>
    </vehicle>
    <vehicle id="77" depart="16.40">
        <route edges="B3C3 C3B3 B3B2 B2B1 B1B10 B10B9 B9C9"/>
    </vehicle>
    <vehicle id="78" depart="16.60">
        <route edges="K9J9 J9I9 I9H9 H9G9 G9G8 G8G7 G7G6 G6G5"/>
    </vehicle>
    <vehicle id="79" depart="16.80">
        <route edges="G2F2 F2E2 E2D2 D2C2 C2C3 C3C4 C4C5 C5C6 C6D6 D6E6"/>
    </vehicle>
    <vehicle id="80" depart="17.00">
        <route edges="F3F2 F2E2 E2D2 D2C2 C2B2 B2B1 B1B10 B10B9 B9B8 B8C8 C8D8 D8C8"/>
    </vehicle>
    <vehicle id="81" depart="17.20">
        <route edges="D1D10 D10D1 D1D2 D2D3 D3D4 D4E4 E4E3"/>
    </vehicle>
    <vehicle id="82" depart="17.40">
        <route edges="J8I8 I8H8 H8H7 H7H6 H6H5 H5H4"/>
    </vehicle>
    <vehicle id="83" depart="17.60">
        <route edges="I3H3 H3H4 H4H5 H5H6 H6I6 I6J6 J6K6 K6K7"/>
    </vehicle>
    <vehicle id="84" depart="17.80">
        <route edges="D9E9 E9E8 E8E7 E7F7 F7G7 G7H7 H7H8"/>
    </vehicle>
    <vehicle id="85" depart="18.00">
        <route edges="J7J6 J6I6 I6H6 H6G6 G6F6 F6E6 E6D6 D6C6 C6B6 B6B5 B5B4 B4B5"/>
    </vehicle>
    <vehicle id="86" depart="18.20">
        <route edges="B7B8 B8B7 B7B6 B6B5 B5B4 B4C4 C4D4 D4D5"/>
    </vehicle>
    <vehicle id="87" depart="18.40">
        <route edges="B6B5 B5B4 B4B3 B3B2"/>
    </vehicle>
    <vehicle id="88" depart="18.60">
        <route edges="E3F3 F3E3 E3D3 D3C3 C3B3 B3B4"/>
    </vehicle>
    <vehicle id="89" depart="18.80">
        <route edges="D10D9 D9D10 D10D1 D1E1 E1F1 F1G1 G1F1"/>
    </vehicle>
    <vehicle id="90" depart="19.00">
        <route edges="D10E10 E10E9 E9E8 E8E7 E7F7 F7F6"/>
    </vehicle>
    <vehicle id="91" depart="19.20">
        <route edges="F1F10 F10E10 E10D10 D10C10 C10B10 B10B9 B9B8 B8B7 B7B6 B6C6 C6D6 D6E6 E6F6 F6G6 G6G5"/>
    </vehicle>
    <vehicle id="92" depart="19.40">
        <route edges="D7D8 D8D7 D7D6 D6D5 D5E5 E5F5 F5G5"/>
    </vehicle>
    <vehicle id="93" depart="19.60">
        <route edges="D6D5 D5C5 C5B5 B5B4 B4B3 B3B2 B2B1 B1C1 C1B1"/>
    </vehicle>
    <vehicle id="94" depart="19.80">
        <route edges="H2G2 G2H2 H2I2 I2J2 J2K2 K2J2"/>
    </vehicle>
    <vehicle id="95" depart="20.00">
        <route edges="F5G5 G5F5 F5F4 F4F3 F3F2 F2G2"/>
    </vehicle>
    <vehicle id="96" depart="20.20">
        <route edges="B6C6 C6C5 C5C4 C4C3 C3D3 D3E3 E3F3 F3G3 G3H3 H3I3 I3I4"/>
    </vehicle>
    <vehicle id="97" depart="20.40">
        <route edges="I2I1 I1I10 I10J10 J10J9"/>
    </vehicle>
    <vehicle id="98" depart="20.60">
        <route edges="I7I6 I6H6 H6G6 G6F6 F6E6 E6D6 D6C6 C6B6 B6B7 B7B8 B8B9 B9B10 B10B1 B1C1 C1D1 D1C1"/>
    </vehicle>
    <vehicle id="99" depart="20.80">
        <route edges="C8C7 C7C8 C8C9 C9C10 C10C1 C1D1 D1E1 E1F1 F1G1 G1H1 H1I1 I1J1 J1J10"/>
    </vehicle>
    <vehicle id="100" depart="21.00">
        <route edges="H10H1 H1G1 G1F1 F1E1 E1D1 D1C1 C1B1"/>
    </vehicle>
    <vehicle id="101" depart="21.20">
        <route edges="F8E8 E8D8 D8C8 C8B8 B8B7 B7B6 B6B5"/>
    </vehicle>
    <vehicle id="102" depart="21.40">
        <route edges="D1D10 D10C10 C10B10 B10B1 B1B2 B2B3 B3B4 B4B5 B5C5 C5D5 D5E5 E5F5 F5G5 G5H5 H5I5 I5H5"/>
    </vehicle>
    <vehicle id="103" depart="21.60">
        <route edges="C7C8 C8D8 D8E8 E8F8 F8G8 G8H8 H8H9"/>
    </vehicle>
    <vehicle id="104" depart="21.80">
        <route edges="I9H9 H9G9 G9F9 F9E9 E9D9 D9C9 C9C8 C8C9"/>
    </vehicle>
    <vehicle id="105" depart="22.00">
        <route edges="E9E10 E10D10 D10C10 C10B10 B10B1 B1B2 B2B3 B3B4 B4B5 B5C5 C5D5 D5E5 E5F5 F5G5 G5H5 H5I5 I5I4"/>
    </vehicle>
    <vehicle id="106" depart="22.20">
        <route edges="D7C7 C7C8 C8C9 C9C10 C10D10 D10D1"/>
    </vehicle>
    <vehicle id="107" depart="22.40">
        <route edges="I6J6 J6I6 I6H6 H6G6 G6F6 F6E6 E6D6 D6C6 C6C5 C5C4 C4D4"/>
    </vehicle>
    <vehicle id="108" depart="22.60">
        <route edges="F8G8 G8F8 F8E8 E8D8 D8C8 C8B8 B8B7 B7B6 B6B5 B5B4 B4C4 C4D4 D4E4 E4F4 F4G4 G4H4 H4I4 I4J4 J4I4"/>
    </vehicle>
    <vehicle id="109" depart="22.80">
        <route edges="C5D5 D5C5 C5B5 B5B6 B6B7 B7B8 B8B9 B9B10 B10C10 C10C1"/>
    </vehicle>
    <vehicle id="110" depart="23.00">
        <route edges="D4C4 C4C5 C5D5 D5E5 E5F5 F5G5 G5H5 H5H6"/>
    </vehicle>
    <vehicle id="111" depart="23.20">
        <route edges="G4H4 H4H3 H3H2 H2I2 I2J2 J2K2 K2J2"/>
    </vehicle>
    <vehicle id="112" depart="23.40">
        <route edges="J3I3 I3H3 H3H4 H4H5"/>
    </vehicle>
    <vehicle id="113" depart="23.60">
        <route edges="K1K2 K2J2 J2I2 I2H2 H2G2 G2F2 F2F1 F1F2"/>
    </vehicle>
    <vehicle id="114" depart="23.80">
        <route edges="J3K3 K3J3 J3I3 I3H3 H3H4 H4H5 H5G5"/>
    </vehicle>
    <vehicle id="115" depart="24.00">
        <route edges="D4D3 D3C3 C3B3 B3B2 B2B1 B1B10 B10B9 B9C9 C9D9 D9E9 E9F9 F9G9 G9H9 H9I9 I9J9 J9I9"/>
    </vehicle>
    <vehicle id="116" depart="24.20">
        <route edges="I8H8 H8G8 G8F8 F8G8"/>
    </vehicle>
    <vehicle id="117" depart="24.40">
        <route edges="F2F1 F1F2 F2F3 F3F4 F4F5"/>
    </vehicle>
    <vehicle id="118" depart="24.60">
        <route edges="C5C6 C6C7 C7D7 D7E7 E7F7 F7G7 G7G8"/>
    </vehicle>
    <vehicle id="119" depart="24.80">
        <route edges="I7I8 I8H8 H8G8 G8F8 F8E8 E8D8 D8C8 C8C9 C9B9"/>
    </vehicle>
    <vehicle id="120" depart="25.00">
        <route edges="C7C8 C8C9 C9C10 C10D10 D10E10 E10F10 F10G10 G10H10 H10I10 I10H10"/>
    </vehicle>
    <vehicle id="121" depart="25.20">
        <route edges="G7H7 H7G7 G7F7 F7E7 E7D7 D7C7 C7C8 C8C9 C9C10 C10C1 C1D1 D1E1 E1F1 F1G1 G1H1 H1H10"/>
    </vehicle>
    <vehicle id="122" depart="25.40">
        <route edges="K1K10 K10J10 J10I10 I10H10 H10G10 G10F10 F10F9 F9F8 F8F7 F7F8"/>
    </vehicle>
    <vehicle id="123" depart="25.60">
        <route edges="D10C10 C10C1 C1C2 C2C3 C3D3 D3E3 E3F3 F3G3 G3H3 H3I3 I3I4"/>
    </vehicle>
    <vehicle id="124" depart="25.80">
        <route edges="K7K8 K8J8 J8I8 I8H8 H8G8 G8F8 F8E8 E8D8 D8C8 C8B8 B8B9 B9B10 B10B1 B1B2 B2B3 B3C3 C3D3 D3E3 E3F3 F3G3 G3H3 H3I3 I3J3 J3K3"/>
    </vehicle>
    <vehicle id="125" depart="26.00">
        <route edges="D2D1 D1C1 C1B1 B1B2 B2B3 B3B4 B4B5 B5B6 B6C6 C6D6 D6E6 E6F6 F6G6 G6H6 H6I6 I6J6 J6K6"/>
    </vehicle>
    <vehicle id="126" depart="26.20">
        <route edges="C2C3 C3C2 C2C1 C1C10 C10D10 D10E10 E10F10"/>
    </vehicle>
    <vehicle id="127" depart="26.40">
        <route edges="D8C8 C8C9 C9C10 C10C1 C1D1 D1E1 E1F1 F1G1 G1H1 H1H2"/>
    </vehicle>
    <vehicle id="128" depart="26.60">
        <route edges="H10G10 G10F10 F10E10 E10D10 D10C10 C10C1 C1C2 C2C3 C3C4 C4D4 D4E4 E4F4 F4E4"/>
    </vehicle>
    <vehicle id="129" depart="26.80">
        <route edges="I2I1 I1H1 H1G1 G1F1 F1E1 E1D1 D1C1 C1C2 C2C3 C3D3"/>
    </vehicle>
    <vehicle id="130" depart="27.00">
        <route edges="K8J8 J8J7 J7J6 J6I6"/>
    </vehicle>
    <vehicle id="131" depart="27.20">
        <route edges="E10E1 E1E2 E2E3 E3E4"/>
    </vehicle>
    <vehicle id="132" depart="27.40">
        <route edges="B2B1 B1B10 B10B9 B9B8 B8B7 B7C7 C7D7 D7E7 E7F7 F7G7 G7H7 H7I7 I7J7 J7J8"/>
    </vehicle>
    <vehicle id="133" depart="27.60">
        <route edges="F5G5 G5F5 F5F6 F6F7 F7F8 F8G8 G8H8 H8I8 I8J8 J8K8 K8K7"/>
    </vehicle>
    <vehicle id="134" depart="27.80">
        <route edges="I3H3 H3G3 G3F3 F3E3 E3D3 D3C3 C3B3 B3B4 B4B5 B5B6 B6B7 B7B8 B8C8 C8D8 D8E8 E8F8 F8G8 G8H8 H8I8 I8H8"/>
    </vehicle>
    <vehicle id="135" depart="28.00">
        <route edges="C3D3 D3C3 C3B3 B3B2 B2B1 B1B10 B10B9 B9C9 C9D9 D9E9 E9F9 F9G9 G9G10"/>
    </vehicle>
    <vehicle id="136" depart="28.20">
        <route edges="F7E7 E7F7 F7F6 F6G6 G6H6 H6I6 I6I7"/>
    </vehicle>
    <vehicle id="137" depart="28.40">
        <route edges="F3F4 F4E4 E4D4 D4D3 D3D2 D2D1 D1D2"/>
    </vehicle>
    <vehicle id="138" depart="28.60">
        <route edges="E3F3 F3F2 F2F1 F1G1 G1H1 H1I1 I1J1 J1K1 K1K10"/>
    </vehicle>
    <vehicle id="139" depart="28.80">
        <route edges="G9F9 F9E9 E9D9 D9C9 C9C8 C8C7 C7C6 C6B6"/>
    </vehicle>
    <vehicle id="140" depart="29.00">
        <route edges="K2K3 K3J3 J3I3 I3H3 H3G3 G3F3 F3E3 E3D3 D3C3 C3C4 C4C5 C5C6 C6C7 C7C8"/>
    </vehicle>
    <vehicle id="141" depart="29.20">
        <route edges="G5F5 F5E5 E5D5 D5C5 C5C6 C6C7 C7C8 C8C9 C9D9 D9E9 E9E8"/>
    </vehicle>
    <vehicle id="142" depart="29.40">
        <route edges="E4D4 D4D5 D5D6 D6E6 E6F6 F6G6 G6H6 H6H7"/>
    </vehicle>
    <vehicle id="143" depart="29.60">
        <route edges="I9I10 I10H10 H10G10 G10F10 F10E10 E10E1 E1E2 E2E3 E3D3"/>
    </vehicle>
    <vehicle id="144" depart="29.80">
        <route edges="B8C8 C8B8 B8B7 B7B6 B6B5 B5B4 B4C4 C4C5"/>
    </vehicle>
    <vehicle id="145" depart="30.00">
        <route edges="B9B10 B10B1 B1B2 B2B3 B3B4 B4B5 B5C5 C5D5 D5E5 E5F5 F5G5 G5H5 H5G5"/>
    </vehicle>
    <vehicle id="146" depart="30.20">
        <route edges="D5C5 C5C4 C4C3 C3D3 D3E3 E3F3 F3G3 G3G2"/>
    </vehicle>
    <vehicle id="147" depart="30.40">
        <route edges="J8I8 I8H8 H8G8 G8F8 F8E8 E8D8 D8C8 C8B8 B8B9 B9B10 B10B1 B1B2 B2B3 B3C3 C3D3 D3E3 E3F3 F3G3 G3G2"/>
    </vehicle>
    <vehicle id="148" depart="30.60">
        <route edges="C8D8 D8C8 C8B8 B8B9 B9B10 B10B1 B1B2 B2B3 B3C3 C3D3 D3E3 E3F3 F3G3 G3H3 H3I3 I3J3 J3K3"/>
    </vehicle>
    <vehicle id="149" depart="30.80">
        <route edges="C6B6 B6B5 B5B4 B4B3 B3B2 B2C2 C2D2 D2E2 E2F2 F2F1"/>
    </vehicle>
    <vehicle id="150" depart="31.00">
        <route edges="C4C5 C5C6 C6C7 C7D7 D7C7"/>
    </vehicle>
    <vehicle id="151" depart="31.20">
        <route edges="K9J9 J9I9 I9H9 H9G9 G9F9 F9E9 E9D9 D9C9 C9C10 C10C1 C1C2 C2C3 C3D3 D3E3 E3F3 F3G3 G3H3 H3G3"/>
    </vehicle>
    <vehicle id="152" depart="31.40">
        <route edges="B7B8 B8B9 B9B10 B10C10 C10D10"/>
    </vehicle>
    <vehicle id="153" depart="31.60">
        <route edges="F10G10 G10G9 G9G8 G8G7 G7H7 H7I7 I7J7"/>
    </vehicle>
    <vehicle id="154" depart="31.80">
        <route edges="C5C6 C6C5 C5D5 D5E5 E5D5"/>
    </vehicle>
    <vehicle id="155" depart="32.00">
        <route edges="G3G4 G4F4 F4E4 E4E3 E3E2"/>
    </vehicle>
    <vehicle id="156" depart="32.20">
        <route edges="F1G1 G1F1 F1E1 E1D1 D1C1 C1B1 B1B2 B2B3 B3B4 B4B5 B5B6 B6C6 C6D6 D6E6 E6E7"/>
    </vehicle>
    <vehicle id="157" depart="32.40">
        <route edges="B3B4 B4B3 B3B2 B2B1 B1B10 B10C10 C10D10 D10E10 E10F10 F10G10 G10H10 H10H9"/>
    </vehicle>
    <vehicle id="158" depart="32.60">
        <route edges="D8E8 E8D8 D8C8 C8C9 C9C10 C10C1 C1C2 C2D2 D2E2 E2F2 F2F1"/>
    </vehicle>
    <vehicle id="159" depart="32.80">
        <route edges="J2J3 J3I3 I3H3 H3G3 G3F3 F3E3 E3D3 D3C3 C3C4 C4C5 C5C6 C6C7 C7C6"/>
    </vehicle>
    <vehicle id="160" depart="33.00">
        <route edges="G9F9 F9E9 E9E10 E10F10"/>
    </vehicle>
    <vehicle id="161" depart="33.20">
        <route edges="E1D1 D1E1 E1F1 F1G1 G1H1 H1I1"/>
    </vehicle>
    <vehicle id="162" depart="33.40">
        <route edges="H1H10 H10H1 H1H2 H2H3 H3I3 I3J3 J3K3 K3J3"/>
    </vehicle>
    <vehicle id="163" depart="33.60">
        <route edges="C9C8 C8C9 C9C10 C10C1 C1D1 D1E1 E1F1 F1G1 G1H1 H1I1 I1I2"/>
    </vehicle>
    <vehicle id="164" depart="33.80">
        <route edges="D2E2 E2E1 E1E10 E10E9 E9F9 F9G9 G9H9 H9H10"/>
    </vehicle>
    <vehicle id="165" depart="34.00">
        <route edges="H5H6 H6G6 G6F6 F6E6 E6D6 D6C6 C6C7 C7C8 C8C9 C9C10 C10D10"/>
    </vehicle>
    <vehicle id="166" depart="34.20">
        <route edges="E5E4 E4E3 E3E2 E2F2 F2G2 G2F2"/>
    </vehicle>
    <vehicle id="167" depart="34.40">
        <route edges="C5D5 D5C5 C5B5 B5B4 B4B3 B3B2 B2B1 B1C1 C1D1 D1E1 E1F1 F1G1 G1H1"/>
    </vehicle>
    <vehicle id="168" depart="34.60">
        <route edges="J5J4 J4I4 I4H4 H4G4 G4F4 F4E4 E4D4 D4C4 C4C5 C5C6 C6C7 C7C8 C8D8 D8E8 E8F8 F8G8 G8H8 H8I8 I8J8 J8K8 K8K9"/>
    </vehicle>
    <vehicle id="169" depart="34.80">
        <route edges="D4D3 D3C3 C3C4"/>
    </vehicle>
    <vehicle id="170" depart="35.00">
        <route edges="C7C8 C8B8 B8B9 B9B10 B10B1 B1B2 B2B3 B3C3 C3D3 D3E3 E3E2"/>
    </vehicle>
    <vehicle id="171" depart="35.20">
        <route edges="B6C6 C6C7 C7C8 C8C9 C9D9 D9E9 E9F9 F9F8"/>
    </vehicle>
    <vehicle id="172" depart="35.40">
        <route edges="J9I9 I9H9 H9G9 G9F9 F9E9 E9D9 D9D10"/>
    </vehicle>
    <vehicle id="173" depart="35.60">
        <route edges="C9B9 B9C9 C9D9 D9E9 E9F9 F9G9 G9H9 H9I9 I9J9 J9I9"/>
    </vehicle>
    <vehicle id="174" depart="35.80">
        <route edges="D10D1 D1C1 C1B1 B1B10 B10B9 B9B8 B8B7 B7C7 C7D7 D7E7 E7F7 F7E7"/>
    </vehicle>
    <vehicle id="175" depart="36.00">
        <route edges="B3C3 C3B3 B3B2 B2B1 B1B10 B10B9 B9C9 C9C10"/>
    </vehicle>
    <vehicle id="176" depart="36.20">
        <route edges="B1B10 B10B9 B9B8 B8C8 C8D8 D8E8 E8F8 F8G8 G8H8"/>
    </vehicle>
    <vehicle id="177" depart="36.40">
        <route edges="F8F7 F7E7 E7D7 D7C7 C7B7 B7B6"/>
    </vehicle>
    <vehicle id="178" depart="36.60">
        <route edges="G8G9 G9F9 F9F8 F8F7"/>
    </vehicle>
    <vehicle id="179" depart="36.80">
        <route edges="F3F2 F2F1 F1F10 F10F9 F9G9 G9H9"/>
    </vehicle>
    <vehicle id="180" depart="37.00">
        <route edges="J2I2 I2H2 H2H3 H3H4 H4H5"/>
    </vehicle>
    <vehicle id="181" depart="37.20">
        <route edges="F7G7 G7G6 G6G5 G5G4 G4F4"/>
    </vehicle>
    <vehicle id="182" depart="37.40">
        <route edges="B2C2 C2C3 C3C4 C4D4 D4E4 E4F4 F4G4 G4H4 H4I4 I4J4 J4K4"/>
    </vehicle>
    <vehicle id="183" depart="37.60">
        <route edges="C3B3 B3C3 C3D3 D3C3"/>
    </vehicle>
    <vehicle id="184" depart="37.80">
        <route edges="B3B2 B2B3 B3C3 C3D3 D3E3 E3F3 F3G3 G3H3"/>
    </vehicle>
    <vehicle id="185" depart="38.00">
        <route edges="J10I10 I10H10 H10G10 G10F10 F10E10 E10D10 D10C10 C10B10 B10B9 B9B8 B8B7 B7B6 B6B5"/>
    </vehicle>
    <vehicle id="186" depart="38.20">
        <route edges="H4I4 I4H4 H4G4 G4F4 F4F5 F5F4"/>
    </vehicle>
    <vehicle id="187" depart="38.40">
        <route edges="G5H5 H5G5 G5G6 G6G7 G7G8 G8H8 H8I8 I8J8 J8K8 K8K9"/>
    </vehicle>
    <vehicle id="188" depart="38.60">
        <route edges="D8D7 D7D6 D6D5 D5D4 D4E4 E4F4"/>
    </vehicle>
    <vehicle id="189" depart="38.80">
        <route edges="F7F6 F6E6 E6D6 D6C6 C6C7 C7C8 C8C9 C9C10 C10C9"/>
    </vehicle>
    <vehicle id="190" depart="39.00">
        <route edges="C8C7 C7C8 C8C9 C9C10 C10C1 C1D1 D1E1 E1F1 F1G1 G1H1 H1H2"/>
    </vehicle>
    <vehicle id="191" depart="39.20">
        <route edges="H5G5 G5H5 H5H4 H4H3"/>
    </vehicle>
    <vehicle id="192" depart="39.40">
        <route edges="B4B5 B5C5 C5D5 D5E5 E5F5 F5G5 G5H5 H5I5 I5I4"/>
    </vehicle>
    <vehicle id="193" depart="39.60">
        <route edges="F3E3 E3E2 E2E1 E1F1 F1G1 G1H1 H1I1 I1J1 J1J10"/>
    </vehicle>
    <vehicle id="194" depart="39.80">
        <route edges="C4C5 C5C4 C4C3 C3C2 C2C1 C1D1 D1E1 E1E10"/>
    </vehicle>
    <vehicle id="195" depart="40.00">
        <route edges="H3G3 G3F3 F3E3 E3D3 D3C3 C3C2 C2C1"/>
    </vehicle>
    <vehicle id="196" depart="40.20">
        <route edges="G6H6 H6G6 G6G7 G7G8 G8G9 G9H9"/>
    </vehicle>
    <vehicle id="197" depart="40.40">
        <route edges="F9F8 F8E8 E8D8 D8C8 C8C9 C9C10 C10C1 C1C2 C2B2"/>
    </vehicle>
    <vehicle id="198" depart="40.60">
        <route edges="H10H1 H1G1 G1F1 F1E1 E1D1 D1C1 C1B1 B1B10 B10B9 B9B8 B8B7 B7C7 C7D7 D7E7 E7F7 F7G7 G7H7 H7I7 I7J7 J7K7 K7K6"/>
    </vehicle>
    <vehicle id="199" depart="40.80">
        <route edges="J3I3 I3H3 H3G3 G3G4 G4G5 G5G6 G6G5"/>
    </vehicle>
    <vehicle id="200" depart="41.00">
        <route edges="I5H5 H5G5 G5F5 F5F6 F6F7 F7F8 F8F7"/>
    </vehicle>
    <vehicle id="201" depart="41.20">
        <route edges="E5F5 F5E5 E5D5 D5D4 D4D3 D3C3"/>
    </vehicle>
    <vehicle id="202" depart="41.40">
        <route edges="H3G3 G3G2 G2G3"/>
    </vehicle>
    <vehicle id="203" depart="41.60">
        <route edges="J7K7 K7J7 J7I7 I7H7 H7G7 G7F7 F7E7 E7D7 D7D6 D6D5 D5D4 D4D5"/>
    </vehicle>
    <vehicle id="204" depart="41.80">
        <route edges="J7I7 I7H7 H7G7 G7F7 F7E7 E7D7 D7C7 C7C8 C8C9 C9C10 C10C1 C1D1 D1E1 E1F1 F1G1"/>
    </vehicle>
    <vehicle id="205" depart="42.00">
        <route edges="D6E6 E6D6 D6C6 C6B6 B6B7 B7B8 B8B9 B9B10 B10B1 B1C1 C1D1 D1D2"/>
    </vehicle>
    <vehicle id="206" depart="42.20">
        <route edges="B4B5 B5B6 B6C6 C6D6 D6E6 E6E5"/>
    </vehicle>
    <vehicle id="207" depart="42.40">
        <route edges="E8E9 E9D9 D9C9 C9B9 B9B8 B8B7 B7B6 B6B5 B5C5 C5D5 D5E5 E5F5 F5G5 G5H5 H5I5 I5J5 J5K5"/>
    </vehicle>
    <vehicle id="208" depart="42.60">
        <route edges="J5K5 K5J5 J5I5 I5H5 H5G5 G5G6 G6G7 G7G8 G8H8"/>
    </vehicle>
    <vehicle id="209" depart="42.80">
        <route edges="I6I5 I5H5 H5G5 G5F5 F5E5 E5D5 D5C5 C5C6 C6C7"/>
    </vehicle>
    <vehicle id="210" depart="43.00">
        <route edges="F5F4 F4F5 F5F6 F6F7 F7G7 G7G8"/>
    </vehicle>
    <vehicle id="211" depart="43.20">
        <route edges="D10C10 C10D10 D10E10 E10F10 F10G10 G10H10 H10I10 I10J10 J10K10 K10K9"/>
    </vehicle>
    <vehicle id="212" depart="43.40">
        <route edges="G4G5 G5F5 F5E5 E5D5 D5C5 C5C6 C6C7 C7C8 C8C9 C9D9 D9E9 E9F9"/>
    </vehicle>
    <vehicle id="213" depart="43.60">
        <route edges="D3D2 D2D3 D3D4 D4E4 E4F4 F4G4 G4G5"/>
    </vehicle>
    <vehicle id="214" depart="43.80">
        <route edges="E10E9 E9E8 E8E7 E7E6 E6F6 F6G6 G6H6 H6I6 I6J6 J6K6 K6J6"/>
    </vehicle>
    <vehicle id="215" depart="44.00">
        <route edges="C3C2 C2C3 C3D3 D3E3 E3F3 F3G3 G3H3 H3I3 I3J3 J3J4"/>
    </vehicle>
    <vehicle id="216" depart="44.20">
        <route edges="J9K9 K9J9 J9I9 I9H9 H9G9 G9F9 F9E9 E9D9 D9D10 D10D1 D1D2 D2D1"/>
    </vehicle>
    <vehicle id="217" depart="44.40">
        <route edges="G5F5 F5E5 E5D5 D5C5 C5C4 C4C3 C3C2"/>
    </vehicle>
    <vehicle id="218" depart="44.60">
        <route edges="D7D8 D8D7 D7C7"/>
    </vehicle>
    <vehicle id="219" depart="44.80">
        <route edges="I4I5 I5I6 I6I7 I7I8 I8J8 J8I8"/>
    </vehicle>
    <vehicle id="220" depart="45.00">
        <route edges="E3E2 E2D2 D2C2 C2B2 B2B3 B3B4 B4B5 B5B6 B6B7 B7C7 C7D7 D7E7 E7F7 F7F8"/>
    </vehicle>
    <vehicle id="221" depart="45.20">
        <route edges="I7I6 I6H6 H6G6 G6F6 F6E6 E6D6 D6C6 C6C7"/>
    </vehicle>
    <vehicle id="222" depart="45.40">
        <route edges="B3C3 C3C2 C2C1 C1D1 D1E1 E1E10"/>
    </vehicle>
    <vehicle id="223" depart="45.60">
        <route edges="F7G7 G7F7 F7E7 E7D7 D7C7 C7B7 B7B8 B8B9 B9B10 B10B1 B1B2 B2C2 C2D2 D2E2 E2F2"/>
    </vehicle>
    <vehicle id="224" depart="45.80">
        <route edges="J4I4 I4H4 H4G4 G4F4 F4E4 E4D4 D4C4 C4C5 C5C6 C6C7 C7C8 C8D8 D8E8 E8F8 F8G8 G8H8 H8H7"/>
    </vehicle>