<?xml version="1.0" encoding="UTF-8"?>

<!-- generated on 04/03/19 11:14:22 by Eclipse SUMO duarouter Version 1.1.0
<configuration xmlns:xsi="http://www.w3.org/2001/XMLSchema-instance" xsi:noNamespaceSchemaLocation="http://sumo.dlr.de/xsd/duarouterConfiguration.xsd">

    <input>
        <net-file value="net.net.xml"/>
        <route-files value="trips.trips.xml"/>
    </input>

    <output>
        <output-file value="out-10-10/./rou750.rou.xml"/>
        <alternatives-output value="out-10-10/./rou750.rou.alt.xml"/>
    </output>

    <time>
        <begin value="1.0"/>
        <end value="101.0"/>
    </time>

    <report>
        <no-warnings value="true"/>
        <ignore-errors value="true"/>
        <no-step-log value="true"/>
    </report>

</configuration>
-->

<routes xmlns:xsi="http://www.w3.org/2001/XMLSchema-instance" xsi:noNamespaceSchemaLocation="http://sumo.dlr.de/xsd/routes_file.xsd">
    <vehicle id="0" depart="1.00">
        <route edges="C6C7 C7C6 C6D6 D6E6 E6F6 F6G6 G6H6 H6I6 I6I7"/>
    </vehicle>
    <vehicle id="1" depart="1.13">
        <route edges="C10D10 D10C10 C10B10 B10B1 B1B2 B2B3 B3B4 B4B5 B5C5 C5C4"/>
    </vehicle>
    <vehicle id="2" depart="1.27">
        <route edges="I10J10 J10I10 I10H10 H10G10 G10F10 F10E10 E10D10 D10C10 C10B10 B10B1 B1B2 B2B3 B3B4 B4B5"/>
    </vehicle>
    <vehicle id="3" depart="1.40">
        <route edges="J2J1 J1J10 J10J9 J9K9 K9K8"/>
    </vehicle>
    <vehicle id="4" depart="1.53">
        <route edges="F7E7 E7E6 E6E5 E5F5"/>
    </vehicle>
    <vehicle id="5" depart="1.67">
        <route edges="F6G6 G6G5 G5G4 G4G3"/>
    </vehicle>
    <vehicle id="6" depart="1.80">
        <route edges="D10D1 D1C1 C1B1 B1B2 B2B3 B3B4 B4B5 B5B6 B6C6 C6D6 D6E6 E6F6 F6G6 G6H6 H6I6 I6I7"/>
    </vehicle>
    <vehicle id="7" depart="1.93">
        <route edges="D9D10 D10D1 D1D2 D2E2 E2F2 F2G2 G2H2 H2G2"/>
    </vehicle>
    <vehicle id="8" depart="2.07">
        <route edges="I4I3 I3H3 H3G3 G3F3 F3E3 E3D3 D3C3 C3B3 B3B4 B4B5 B5B6 B6C6"/>
    </vehicle>
    <vehicle id="9" depart="2.20">
        <route edges="F4F5 F5E5 E5D5 D5C5 C5B5 B5B4 B4B3 B3B2 B2B1 B1C1 C1D1 D1E1 E1F1 F1G1 G1H1 H1H2"/>
    </vehicle>
    <vehicle id="10" depart="2.33">
        <route edges="H3H2 H2G2 G2F2 F2E2 E2D2 D2C2 C2B2 B2B1 B1B10 B10B9 B9B8 B8C8"/>
    </vehicle>
    <vehicle id="11" depart="2.47">
        <route edges="F2F1 F1E1 E1D1 D1C1 C1B1 B1B2 B2B3 B3B4 B4B5"/>
    </vehicle>
    <vehicle id="12" depart="2.60">
        <route edges="E3E2 E2E1 E1E10 E10E9 E9F9 F9G9 G9H9 H9I9 I9J9 J9I9"/>
    </vehicle>
    <vehicle id="13" depart="2.73">
        <route edges="H5H4 H4G4 G4F4 F4E4 E4D4 D4C4 C4B4 B4B5 B5B6 B6B7 B7B8 B8B9 B9C9 C9D9 D9E9 E9F9 F9F10"/>
    </vehicle>
    <vehicle id="14" depart="2.87">
        <route edges="H1G1 G1F1 F1E1 E1E10 E10E9 E9D9"/>
    </vehicle>
    <vehicle id="15" depart="3.00">
        <route edges="H6I6 I6I5 I5I4 I4J4 J4J5"/>
    </vehicle>
    <vehicle id="16" depart="3.13">
        <route edges="D9D10 D10D9 D9E9 E9F9 F9F10"/>
    </vehicle>
    <vehicle id="17" depart="3.27">
        <route edges="F9E9 E9F9 F9G9 G9H9 H9I9 I9I10"/>
    </vehicle>
    <vehicle id="18" depart="3.40">
        <route edges="E10E9 E9E10 E10E1 E1E2 E2E1"/>
    </vehicle>
    <vehicle id="19" depart="3.53">
        <route edges="C4B4 B4B3 B3B2 B2B1 B1C1 C1D1 D1E1 E1F1 F1G1 G1H1 H1I1 I1J1 J1J10"/>
    </vehicle>
    <vehicle id="20" depart="3.67">
        <route edges="H1H10 H10G10 G10F10 F10E10 E10D10 D10C10 C10B10 B10B9 B9B8 B8B9"/>
    </vehicle>
    <vehicle id="21" depart="3.80">
        <route edges="J10I10 I10H10 H10G10 G10G9 G9F9"/>
    </vehicle>
    <vehicle id="22" depart="3.93">
        <route edges="K10K9 K9J9 J9J10 J10J9"/>
    </vehicle>
    <vehicle id="23" depart="4.07">
        <route edges="I1I2 I2H2 H2G2 G2G1 G1G10"/>
    </vehicle>
    <vehicle id="24" depart="4.20">
        <route edges="I6H6 H6G6 G6F6 F6E6 E6D6 D6C6 C6C5 C5C4 C4C3 C3C2"/>
    </vehicle>
    <vehicle id="25" depart="4.33">
        <route edges="B9C9 C9B9 B9B8 B8B7 B7B6 B6B5 B5C5 C5D5 D5E5 E5F5"/>
    </vehicle>
    <vehicle id="26" depart="4.47">
        <route edges="I6H6 H6H7 H7H8 H8H9 H9I9 I9J9 J9K9 K9K8"/>
    </vehicle>
    <vehicle id="27" depart="4.60">
        <route edges="G9G8 G8G7 G7H7 H7I7"/>
    </vehicle>
    <vehicle id="28" depart="4.73">
        <route edges="D10D9 D9C9 C9B9 B9B10 B10B1 B1B2 B2B3"/>
    </vehicle>
    <vehicle id="29" depart="4.87">
        <route edges="K10J10 J10I10 I10H10 H10G10 G10H10"/>
    </vehicle>
    <vehicle id="30" depart="5.00">
        <route edges="E1D1 D1C1 C1C2 C2C3 C3C4 C4C5 C5D5 D5E5 E5E6"/>
    </vehicle>
    <vehicle id="31" depart="5.13">
        <route edges="F9G9 G9G8 G8G7 G7H7 H7I7 I7I6"/>
    </vehicle>
    <vehicle id="32" depart="5.27">
        <route edges="C6C5 C5C6 C6C7 C7D7 D7D6"/>
    </vehicle>
    <vehicle id="33" depart="5.40">
        <route edges="I8I7 I7H7 H7G7 G7F7 F7E7 E7D7 D7C7 C7B7 B7B6 B6B5 B5B4 B4B3 B3C3 C3D3 D3D4"/>
    </vehicle>
    <vehicle id="34" depart="5.53">
        <route edges="B6B5 B5B4 B4B3 B3B2 B2C2 C2D2 D2E2 E2E3"/>
    </vehicle>
    <vehicle id="35" depart="5.67">
        <route edges="J7I7 I7H7 H7G7 G7F7 F7E7 E7D7 D7C7 C7B7 B7B8 B8B9 B9B10 B10B1 B1B2"/>
    </vehicle>
    <vehicle id="36" depart="5.80">
        <route edges="K3K4 K4J4 J4I4 I4H4 H4G4 G4F4 F4E4 E4D4 D4C4 C4B4 B4B3 B3B2 B2B1 B1B10 B10C10 C10D10 D10E10 E10F10 F10G10 G10H10 H10I10 I10J10 J10J9"/>
    </vehicle>
    <vehicle id="37" depart="5.93">
        <route edges="H9H10 H10H9 H9H8 H8I8 I8J8"/>
    </vehicle>
    <vehicle id="38" depart="6.07">
        <route edges="J1K1 K1J1 J1I1 I1H1 H1H10 H10H9 H9H8 H8H7"/>
    </vehicle>
    <vehicle id="39" depart="6.20">
        <route edges="D3D2 D2D1 D1D10 D10D9 D9D10"/>
    </vehicle>
    <vehicle id="40" depart="6.33">
        <route edges="J4K4 K4J4 J4I4 I4H4 H4G4 G4F4 F4E4 E4D4 D4C4 C4B4 B4B3 B3B2 B2B1 B1B10 B10B1"/>
    </vehicle>
    <vehicle id="41" depart="6.47">
        <route edges="G2H2 H2G2 G2G1 G1G10 G10H10"/>
    </vehicle>
    <vehicle id="42" depart="6.60">
        <route edges="D2E2 E2D2 D2C2 C2B2 B2B1 B1B10 B10B9 B9B8 B8C8 C8D8 D8E8 E8F8"/>
    </vehicle>
    <vehicle id="43" depart="6.73">
        <route edges="C10D10 D10D9 D9D8 D8D7 D7E7 E7F7 F7G7 G7G6"/>
    </vehicle>
    <vehicle id="44" depart="6.87">
        <route edges="E1E10 E10E9 E9E8 E8F8 F8F9"/>
    </vehicle>
    <vehicle id="45" depart="7.00">
        <route edges="K1K10 K10J10 J10J1 J1J2 J2K2"/>
    </vehicle>
    <vehicle id="46" depart="7.13">
        <route edges="J7J6 J6I6 I6H6 H6G6"/>
    </vehicle>
    <vehicle id="47" depart="7.27">
        <route edges="D2D1 D1C1 C1B1 B1B2 B2B3 B3B4 B4B5 B5B6 B6C6 C6D6 D6E6 E6F6 F6G6 G6H6"/>
    </vehicle>
    <vehicle id="48" depart="7.40">
        <route edges="D4C4 C4C5 C5C6 C6C7 C7C8 C8D8 D8E8 E8F8 F8G8 G8H8 H8I8 I8J8 J8J7"/>
    </vehicle>
    <vehicle id="49" depart="7.53">
        <route edges="H5I5 I5H5 H5G5 G5F5 F5E5 E5D5 D5C5 C5B5 B5B4 B4C4"/>
    </vehicle>
    <vehicle id="50" depart="7.67">
        <route edges="D8D9 D9C9 C9B9 B9B8 B8B7 B7B6 B6B5 B5C5 C5D5 D5E5 E5D5"/>
    </vehicle>
    <vehicle id="51" depart="7.80">
        <route edges="J10J1 J1I1 I1H1 H1G1 G1F1 F1E1 E1D1 D1D2 D2D3 D3D4"/>
    </vehicle>
    <vehicle id="52" depart="7.93">
        <route edges="E6F6 F6E6 E6D6 D6C6 C6C5 C5C4 C4B4"/>
    </vehicle>
    <vehicle id="53" depart="8.07">
        <route edges="G3F3 F3F4 F4G4 G4H4 H4I4 I4J4 J4K4 K4K5"/>
    </vehicle>
    <vehicle id="54" depart="8.20">
        <route edges="F3F4 F4E4 E4D4 D4C4 C4C3 C3C2 C2C1 C1B1"/>
    </vehicle>
    <vehicle id="55" depart="8.33">
        <route edges="D3E3 E3D3 D3C3 C3C4 C4C5 C5C6 C6C7 C7D7 D7D6"/>
    </vehicle>
    <vehicle id="56" depart="8.47">
        <route edges="H3H4 H4G4 G4F4 F4E4 E4D4 D4C4 C4C5 C5B5"/>
    </vehicle>
    <vehicle id="57" depart="8.60">
        <route edges="H3I3 I3H3 H3G3 G3F3 F3E3 E3D3 D3C3 C3D3"/>
    </vehicle>
    <vehicle id="58" depart="8.73">
        <route edges="C5B5 B5B6 B6B7 B7C7 C7D7 D7E7 E7F7 F7G7 G7H7 H7I7"/>
    </vehicle>
    <vehicle id="59" depart="8.87">
        <route edges="H9I9 I9H9 H9G9 G9F9 F9E9 E9D9 D9C9 C9B9 B9B10 B10B1 B1B2 B2B3 B3B4 B4C4 C4B4"/>
    </vehicle>
    <vehicle id="60" depart="9.00">
        <route edges="H8H7 H7G7 G7F7 F7E7 E7D7 D7C7 C7C8 C8C9 C9C10 C10C1 C1D1 D1E1 E1D1"/>
    </vehicle>
    <vehicle id="61" depart="9.13">
        <route edges="D4D3 D3C3 C3C4 C4C5 C5C6 C6C5"/>
    </vehicle>
    <vehicle id="62" depart="9.27">
        <route edges="D1E1 E1E2 E2E3 E3F3 F3G3 G3H3 H3H4"/>
    </vehicle>
    <vehicle id="63" depart="9.40">
        <route edges="E9E10 E10E1 E1E2 E2E3 E3F3 F3G3 G3H3 H3I3 I3J3 J3K3 K3J3"/>
    </vehicle>
    <vehicle id="64" depart="9.53">
        <route edges="D4C4 C4C3 C3C2 C2D2 D2E2 E2F2 F2G2 G2H2 H2I2 I2J2 J2J3"/>
    </vehicle>
    <vehicle id="65" depart="9.67">
        <route edges="K8K7 K7J7 J7I7 I7H7 H7G7 G7F7 F7E7 E7D7 D7C7 C7B7 B7B8 B8B9 B9C9"/>
    </vehicle>
    <vehicle id="66" depart="9.80">
        <route edges="D6C6 C6B6 B6B7 B7C7"/>
    </vehicle>
    <vehicle id="67" depart="9.93">
        <route edges="E10D10 D10C10 C10B10 B10B1 B1B2 B2B3 B3B4 B4B5 B5C5 C5D5 D5E5 E5F5 F5G5 G5H5 H5I5 I5J5 J5I5"/>
    </vehicle>
    <vehicle id="68" depart="10.07">
        <route edges="E2D2 D2D3 D3D4 D4E4 E4F4 F4G4 G4H4 H4I4"/>
    </vehicle>
    <vehicle id="69" depart="10.20">
        <route edges="C9C8 C8D8 D8E8 E8F8 F8G8 G8H8 H8I8 I8J8 J8K8 K8K7"/>
    </vehicle>
    <vehicle id="70" depart="10.33">
        <route edges="F9F8 F8F9 F9F10 F10G10 G10H10 H10I10"/>
    </vehicle>
    <vehicle id="71" depart="10.47">
        <route edges="F5E5 E5E6 E6F6 F6F5"/>
    </vehicle>
    <vehicle id="72" depart="10.60">
        <route edges="I4J4 J4I4 I4H4"/>
    </vehicle>
    <vehicle id="73" depart="10.73">
        <route edges="D1C1 C1B1 B1B10 B10B9 B9B8 B8B7 B7C7 C7D7 D7E7 E7F7 F7G7 G7H7"/>
    </vehicle>
    <vehicle id="74" depart="10.87">
        <route edges="H2G2 G2G3 G3G4 G4G5 G5H5 H5I5 I5I6"/>
    </vehicle>
    <vehicle id="75" depart="11.00">
        <route edges="D10D9 D9D10 D10E10 E10F10 F10E10"/>
    </vehicle>
    <vehicle id="76" depart="11.13">
        <route edges="H3G3 G3G2 G2G1 G1G10 G10H10 H10I10 I10H10"/>
    </vehicle>
    <vehicle id="77" depart="11.27">
        <route edges="K9K8 K8J8 J8I8 I8H8 H8G8 G8F8 F8E8 E8D8 D8C8 C8C9 C9C10 C10C1 C1C2 C2B2"/>
    </vehicle>
    <vehicle id="78" depart="11.40">
        <route edges="G10F10 F10E10 E10D10 D10C10 C10B10 B10B1 B1B2 B2B3 B3B4 B4B5 B5C5 C5D5 D5E5 E5F5 F5F4"/>
    </vehicle>
    <vehicle id="79" depart="11.53">
        <route edges="B3B2 B2B3 B3B4 B4C4 C4D4 D4E4 E4F4 F4G4 G4H4 H4I4 I4J4 J4K4 K4K5"/>
    </vehicle>
    <vehicle id="80" depart="11.67">
        <route edges="D5D6 D6E6 E6F6 F6G6 G6H6 H6G6"/>
    </vehicle>
    <vehicle id="81" depart="11.80">
        <route edges="C3D3 D3C3 C3C4 C4C5 C5C6 C6D6 D6E6 E6F6 F6G6 G6H6 H6I6 I6J6 J6I6"/>
    </vehicle>
    <vehicle id="82" depart="11.93">
        <route edges="D2E2 E2D2 D2D1"/>
    </vehicle>
    <vehicle id="83" depart="12.07">
        <route edges="K4J4 J4I4 I4I3 I3H3"/>
    </vehicle>
    <vehicle id="84" depart="12.20">
        <route edges="G8G9 G9G8 G8G7 G7H7 H7I7 I7H7"/>
    </vehicle>
    <vehicle id="85" depart="12.33">
        <route edges="I5I4 I4H4 H4G4 G4F4 F4F3 F3E3"/>
    </vehicle>
    <vehicle id="86" depart="12.47">
        <route edges="H4G4 G4F4 F4E4 E4D4 D4C4 C4B4 B4B5 B5B6 B6B7 B7B8 B8B9 B9C9 C9D9 D9E9 E9F9 F9G9 G9H9 H9I9 I9J9 J9K9 K9K10"/>
    </vehicle>
    <vehicle id="87" depart="12.60">
        <route edges="B7B8 B8B7 B7B6 B6B5 B5B4 B4C4 C4D4 D4E4 E4F4 F4G4 G4H4 H4I4 I4J4 J4J3"/>
    </vehicle>
    <vehicle id="88" depart="12.73">
        <route edges="J4J3 J3I3 I3H3 H3G3 G3F3 F3E3 E3E4"/>
    </vehicle>
    <vehicle id="89" depart="12.87">
        <route edges="C1D1 D1C1 C1B1 B1B10 B10B9 B9B8 B8B7 B7C7 C7D7 D7E7 E7F7 F7G7 G7H7 H7I7 I7J7 J7K7 K7K6"/>
    </vehicle>
    <vehicle id="90" depart="13.00">
        <route edges="K10J10 J10I10 I10H10 H10G10 G10F10 F10F1 F1F2 F2G2"/>
    </vehicle>
    <vehicle id="91" depart="13.13">
        <route edges="J9I9 I9H9 H9G9 G9F9 F9F10 F10F1 F1G1"/>
    </vehicle>
    <vehicle id="92" depart="13.27">
        <route edges="I9H9 H9H10 H10H1 H1I1 I1J1 J1K1 K1J1"/>
    </vehicle>
    <vehicle id="93" depart="13.40">
        <route edges="J7K7 K7J7 J7I7 I7H7 H7G7 G7F7 F7E7 E7D7 D7C7 C7B7 B7B8 B8B9 B9B10 B10B1 B1B2"/>
    </vehicle>
    <vehicle id="94" depart="13.53">
        <route edges="H8H7 H7H8 H8H9"/>
    </vehicle>
    <vehicle id="95" depart="13.67">
        <route edges="I2I3 I3H3 H3G3 G3F3 F3F2 F2F1 F1F10 F10F9"/>
    </vehicle>
    <vehicle id="96" depart="13.80">
        <route edges="I6I7 I7H7 H7G7 G7F7"/>
    </vehicle>
    <vehicle id="97" depart="13.93">
        <route edges="K3K2 K2J2 J2I2 I2H2 H2G2 G2F2 F2E2 E2D2 D2C2 C2C1 C1C2"/>
    </vehicle>
    <vehicle id="98" depart="14.07">
        <route edges="H1H10 H10G10 G10F10 F10E10 E10D10 D10C10 C10B10 B10B9 B9B8 B8B7 B7B6 B6C6 C6D6 D6E6 E6E7"/>
    </vehicle>
    <vehicle id="99" depart="14.20">
        <route edges="E5D5 D5C5 C5C6 C6C7 C7C8 C8C9"/>
    </vehicle>
    <vehicle id="100" depart="14.33">
        <route edges="G2G3 G3F3 F3E3 E3E2 E2E1 E1E10 E10D10"/>
    </vehicle>
    <vehicle id="101" depart="14.47">
        <route edges="D7E7 E7D7 D7C7 C7B7 B7B8 B8B9 B9B8"/>
    </vehicle>
    <vehicle id="102" depart="14.60">
        <route edges="C8D8 D8D7 D7E7 E7F7 F7G7 G7H7 H7I7"/>
    </vehicle>
    <vehicle id="103" depart="14.73">
        <route edges="G9H9 H9G9 G9F9"/>
    </vehicle>
    <vehicle id="104" depart="14.87">
        <route edges="G7H7 H7G7 G7F7 F7E7 E7E8 E8E7"/>
    </vehicle>
    <vehicle id="105" depart="15.00">
        <route edges="J4K4 K4J4 J4I4 I4H4 H4H5"/>
    </vehicle>
    <vehicle id="106" depart="15.13">
        <route edges="I4J4 J4I4 I4H4 H4G4 G4F4 F4E4 E4D4 D4E4"/>
    </vehicle>
    <vehicle id="107" depart="15.27">
        <route edges="D6E6 E6D6 D6C6 C6C7 C7C8 C8C9 C9C10 C10D10 D10E10 E10F10 F10G10 G10H10 H10I10 I10J10 J10K10 K10J10"/>
    </vehicle>
    <vehicle id="108" depart="15.40">
        <route edges="C7D7 D7C7 C7B7 B7B6 B6B5 B5B4 B4B3 B3C3 C3D3 D3E3 E3F3 F3G3 G3H3 H3I3 I3J3 J3K3 K3K4"/>
    </vehicle>
    <vehicle id="109" depart="15.53">
        <route edges="H3H2 H2G2 G2F2 F2F3 F3F4 F4F5 F5E5"/>
    </vehicle>
    <vehicle id="110" depart="15.67">
        <route edges="I8I9 I9H9 H9G9 G9F9 F9E9 E9D9 D9C9 C9B9 B9B8 B8B7 B7B6 B6B5"/>
    </vehicle>
    <vehicle id="111" depart="15.80">
        <route edges="J6K6 K6J6 J6I6 I6H6 H6G6 G6F6 F6E6 E6D6 D6C6 C6B6 B6B7 B7B8 B8B9 B9B10 B10B1 B1C1 C1D1 D1E1 E1F1"/>
    </vehicle>
    <vehicle id="112" depart="15.93">
        <route edges="B1C1 C1B1 B1B2 B2B3 B3B4 B4B5 B5B6 B6C6 C6D6 D6D7"/>
    </vehicle>
    <vehicle id="113" depart="16.07">
        <route edges="F1F10 F10F9 F9F8 F8F7 F7F8"/>
    </vehicle>
    <vehicle id="114" depart="16.20">
        <route edges="E1F1 F1F10 F10F9 F9G9 G9H9 H9I9 I9J9 J9K9 K9K10"/>
    </vehicle>
    <vehicle id="115" depart="16.33">
        <route edges="J6K6 K6J6 J6I6 I6H6 H6G6 G6F6 F6E6 E6D6 D6C6 C6B6 B6B5 B5B4 B4B3 B3B2 B2C2 C2D2 D2E2 E2F2 F2G2 G2H2 H2I2 I2J2 J2K2 K2K1"/>
    </vehicle>
    <vehicle id="116" depart="16.47">
        <route edges="I10J10 J10I10 I10H10 H10G10 G10F10 F10E10 E10D10 D10C10 C10B10 B10B1 B1B2 B2B3 B3B4 B4B5 B5C5 C5D5"/>
    </vehicle>
    <vehicle id="117" depart="16.60">
        <route edges="D4E4 E4D4 D4D5 D5D6 D6D7 D7E7 E7F7 F7G7 G7G8"/>
    </vehicle>
    <vehicle id="118" depart="16.73">
        <route edges="I2I1 I1H1 H1G1 G1F1 F1E1 E1D1 D1C1 C1B1 B1B10 B10B9 B9C9"/>
    </vehicle>
    <vehicle id="119" depart="16.87">
        <route edges="D5D6 D6E6 E6F6 F6G6 G6H6 H6I6"/>
    </vehicle>
    <vehicle id="120" depart="17.00">
        <route edges="H3H2 H2G2 G2F2 F2E2 E2E3 E3E4 E4E5 E5E4"/>
    </vehicle>
    <vehicle id="121" depart="17.13">
        <route edges="C9C10 C10C1 C1C10"/>
    </vehicle>
    <vehicle id="122" depart="17.27">
        <route edges="E2F2 F2E2 E2D2 D2C2"/>
    </vehicle>
    <vehicle id="123" depart="17.40">
        <route edges="G6G5 G5G4 G4G3 G3H3 H3I3 I3J3 J3J4"/>
    </vehicle>
    <vehicle id="124" depart="17.53">
        <route edges="B1B10 B10B9 B9C9 C9B9"/>
    </vehicle>
    <vehicle id="125" depart="17.67">
        <route edges="G9H9 H9G9 G9G8 G8G7 G7G6"/>
    </vehicle>
    <vehicle id="126" depart="17.80">
        <route edges="B9B8 B8B9 B9B10 B10B1 B1B2 B2C2 C2D2 D2E2 E2F2"/>
    </vehicle>
    <vehicle id="127" depart="17.93">
        <route edges="D7E7 E7D7 D7C7 C7B7 B7B6"/>
    </vehicle>
    <vehicle id="128" depart="18.07">
        <route edges="I7H7 H7G7 G7F7 F7E7 E7D7 D7C7 C7B7 B7B8 B8B9 B9B10 B10B1 B1B2 B2C2 C2D2 D2E2 E2F2 F2G2 G2G1"/>
    </vehicle>
    <vehicle id="129" depart="18.20">
        <route edges="G8F8 F8F7 F7F6 F6F5 F5G5"/>
    </vehicle>
    <vehicle id="130" depart="18.33">
        <route edges="J3J2 J2I2 I2H2 H2G2 G2F2 F2E2 E2D2 D2D1 D1D10 D10D9 D9D10"/>
    </vehicle>
    <vehicle id="131" depart="18.47">
        <route edges="I1H1 H1G1 G1F1 F1F10 F10F9"/>
    </vehicle>
    <vehicle id="132" depart="18.60">
        <route edges="F7G7 G7F7 F7E7 E7D7 D7C7 C7C8 C8C9 C9C10 C10C1 C1D1 D1E1 E1F1 F1G1 G1F1"/>
    </vehicle>
    <vehicle id="133" depart="18.73">
        <route edges="E8E7 E7E8 E8E9 E9F9 F9G9 G9H9 H9G9"/>
    </vehicle>
    <vehicle id="134" depart="18.87">
        <route edges="D10E10 E10D10 D10C10 C10B10 B10B9 B9B8 B8B7 B7B6 B6C6 C6D6 D6E6 E6F6 F6E6"/>
    </vehicle>
    <vehicle id="135" depart="19.00">
        <route edges="B6B7 B7B6 B6C6 C6D6 D6E6 E6F6 F6G6 G6H6 H6I6 I6J6 J6J5"/>
    </vehicle>
    <vehicle id="136" depart="19.13">
        <route edges="G6H6 H6G6 G6F6 F6F7 F7F8 F8F7"/>
    </vehicle>
    <vehicle id="137" depart="19.27">
        <route edges="C3C2 C2C1 C1C10 C10D10 D10E10 E10F10 F10G10"/>
    </vehicle>
    <vehicle id="138" depart="19.40">
        <route edges="K2J2 J2I2 I2H2 H2G2 G2F2 F2E2 E2D2 D2C2 C2C3 C3C4 C4C5 C5C6 C6D6 D6E6 E6F6 F6F7"/>
    </vehicle>
    <vehicle id="139" depart="19.53">
        <route edges="J2J3 J3I3 I3H3 H3G3 G3F3 F3E3 E3D3 D3C3 C3B3 B3B4 B4B5 B5B6 B6B7 B7B8 B8C8 C8D8 D8E8 E8F8 F8G8 G8H8 H8I8 I8J8 J8K8"/>
    </vehicle>
    <vehicle id="140" depart="19.67">
        <route edges="C10C1 C1C10 C10C9 C9C8 C8C7 C7C8"/>
    </vehicle>
    <vehicle id="141" depart="19.80">
        <route edges="E4E3 E3D3 D3D2 D2E2"/>
    </vehicle>
    <vehicle id="142" depart="19.93">
        <route edges="J6J5 J5I5 I5H5 H5G5 G5F5 F5E5 E5D5 D5C5 C5C6 C6C7 C7C8 C8C9"/>
    </vehicle>
    <vehicle id="143" depart="20.07">
        <route edges="E5E6 E6D6 D6C6 C6D6"/>
    </vehicle>
    <vehicle id="144" depart="20.20">
        <route edges="E5E6 E6D6 D6C6 C6C7 C7C8 C8C9 C9C10 C10D10 D10E10 E10F10 F10F1"/>
    </vehicle>
    <vehicle id="145" depart="20.33">
        <route edges="B10B9 B9B10 B10B1 B1C1 C1D1 D1E1 E1F1 F1G1 G1G2"/>
    </vehicle>
    <vehicle id="146" depart="20.47">
        <route edges="H8I8 I8I9"/>
    </vehicle>
    <vehicle id="147" depart="20.60">
        <route edges="F9F8 F8E8 E8D8 D8C8 C8B8 B8B9 B9B10 B10B1 B1B2 B2B3 B3C3 C3D3 D3E3 E3F3 F3G3 G3H3 H3I3 I3J3 J3K3 K3K4"/>
    </vehicle>
    <vehicle id="148" depart="20.73">
        <route edges="K6K7 K7J7 J7I7 I7H7 H7G7 G7F7 F7E7 E7D7 D7C7 C7B7 B7B6 B6B5 B5B4 B4B3 B3C3 C3D3 D3E3 E3F3 F3G3 G3H3 H3I3 I3I4"/>
    </vehicle>
    <vehicle id="149" depart="20.87">
        <route edges="H6H7 H7H8 H8H9 H9H10 H10I10"/>
    </vehicle>
    <vehicle id="150" depart="21.00">
        <route edges="K6J6 J6I6 I6H6 H6G6 G6F6 F6E6 E6D6 D6C6 C6B6 B6B7 B7B8 B8B9 B9B10 B10B1 B1C1 C1D1 D1E1 E1F1 F1G1 G1H1"/>
    </vehicle>
    <vehicle id="151" depart="21.13">
        <route edges="B8B9 B9B10 B10B1 B1C1 C1D1 D1E1 E1F1 F1G1 G1H1 H1I1 I1J1 J1K1 K1J1"/>
    </vehicle>
    <vehicle id="152" depart="21.27">
        <route edges="E5E4 E4E5 E5E6 E6D6"/>
    </vehicle>
    <vehicle id="153" depart="21.40">
        <route edges="H3G3 G3G4 G4G5 G5G6"/>
    </vehicle>
    <vehicle id="154" depart="21.53">
        <route edges="H3G3 G3F3 F3E3 E3D3 D3C3 C3B3 B3B2 B2B1 B1B10 B10B9 B9C9 C9D9"/>
    </vehicle>
    <vehicle id="155" depart="21.67">
        <route edges="B9C9 C9B9 B9B8 B8B7 B7B6 B6B5 B5C5 C5D5 D5E5 E5F5"/>
    </vehicle>
    <vehicle id="156" depart="21.80">
        <route edges="K2K1 K1J1 J1I1 I1H1 H1G1 G1F1 F1E1 E1D1 D1C1 C1B1 B1B10 B10B9 B9B8 B8B7 B7B8"/>
    </vehicle>
    <vehicle id="157" depart="21.93">
        <route edges="F4G4 G4F4 F4F5 F5F6 F6F5"/>
    </vehicle>
    <vehicle id="158" depart="22.07">
        <route edges="J2J3 J3I3 I3H3 H3G3 G3G2 G2G1 G1H1"/>
    </vehicle>
    <vehicle id="159" depart="22.20">
        <route edges="G3F3 F3E3 E3D3 D3C3 C3B3 B3B2 B2B1 B1B10 B10B9 B9C9 C9B9"/>
    </vehicle>
    <vehicle id="160" depart="22.33">
        <route edges="I10H10 H10H1 H1H2 H2H3 H3I3 I3J3 J3J4"/>
    </vehicle>
    <vehicle id="161" depart="22.47">
        <route edges="J2J1 J1I1 I1H1 H1G1 G1G10"/>
    </vehicle>
    <vehicle id="162" depart="22.60">
        <route edges="D4C4 C4B4 B4B5 B5B6 B6B7 B7B8 B8B9 B9C9 C9D9"/>
    </vehicle>
    <vehicle id="163" depart="22.73">
        <route edges="G5G4 G4F4 F4E4 E4D4 D4C4 C4B4 B4B5 B5B6 B6B7 B7B8 B8B7"/>
    </vehicle>
    <vehicle id="164" depart="22.87">
        <route edges="J6J5 J5I5 I5H5 H5G5 G5F5 F5E5 E5D5 D5C5 C5B5 B5B4 B4B3 B3B2 B2B1 B1C1 C1D1 D1E1 E1F1 F1G1 G1G10"/>
    </vehicle>
    <vehicle id="165" depart="23.00">
        <route edges="E2E3 E3D3 D3C3 C3C4 C4C5 C5C6 C6C7 C7D7 D7E7 E7F7"/>
    </vehicle>
    <vehicle id="166" depart="23.13">
        <route edges="C8C9 C9C8 C8D8 D8E8 E8D8"/>
    </vehicle>
    <vehicle id="167" depart="23.27">
        <route edges="I7J7 J7J6 J6J5 J5K5 K5K4"/>
    </vehicle>
    <vehicle id="168" depart="23.40">
        <route edges="C5B5 B5B4 B4C4 C4D4 D4E4 E4F4 F4G4 G4G5"/>
    </vehicle>
    <vehicle id="169" depart="23.53">
        <route edges="J10I10 I10H10 H10G10 G10F10 F10E10 E10D10 D10C10 C10B10 B10B9 B9B8 B8B7 B7B6 B6B5"/>
    </vehicle>
    <vehicle id="170" depart="23.67">
        <route edges="F4G4 G4F4 F4E4 E4D4 D4D3 D3D2 D2D1 D1E1"/>
    </vehicle>
    <vehicle id="171" depart="23.80">
        <route edges="B6B7 B7B6 B6B5"/>
    </vehicle>
    <vehicle id="172" depart="23.93">
        <route edges="G6H6 H6H5 H5H4 H4I4"/>
    </vehicle>
    <vehicle id="173" depart="24.07">
        <route edges="H10I10 I10H10 H10G10 G10F10 F10E10 E10D10 D10C10 C10C9 C9B9"/>
    </vehicle>
    <vehicle id="174" depart="24.20">
        <route edges="H9H10 H10G10 G10G9 G9G10"/>
    </vehicle>
    <vehicle id="175" depart="24.33">
        <route edges="E5F5 F5E5 E5D5 D5C5 C5C6 C6C7 C7C8 C8C9 C9D9 D9E9 E9F9 F9F10"/>
    </vehicle>
    <vehicle id="176" depart="24.47">
        <route edges="G7G6 G6G5 G5G4 G4H4 H4I4 I4J4 J4K4 K4K5"/>
    </vehicle>
    <vehicle id="177" depart="24.60">
        <route edges="G2H2 H2G2 G2F2 F2E2 E2D2 D2C2 C2B2 B2B1 B1B10 B10B9 B9B8 B8C8 C8C9"/>
    </vehicle>
    <vehicle id="178" depart="24.73">
        <route edges="B1C1 C1B1 B1B10 B10B9 B9B8 B8B7 B7C7 C7D7 D7E7 E7F7 F7G7 G7H7 H7I7 I7J7 J7I7"/>
    </vehicle>
    <vehicle id="179" depart="24.87">
        <route edges="F4F3 F3F2 F2G2 G2H2 H2I2"/>
    </vehicle>
    <vehicle id="180" depart="25.00">
        <route edges="F3F2 F2G2 G2H2 H2I2 I2J2 J2I2"/>
    </vehicle>
    <vehicle id="181" depart="25.13">
        <route edges="D7E7 E7E8 E8F8 F8G8 G8H8 H8I8 I8J8"/>
    </vehicle>
    <vehicle id="182" depart="25.27">
        <route edges="D8D9 D9D10 D10D1 D1D2 D2E2 E2F2 F2G2 G2H2 H2I2 I2J2 J2J3"/>
    </vehicle>
    <vehicle id="183" depart="25.40">
        <route edges="G8G9 G9F9 F9E9 E9D9 D9C9 C9C10 C10C1 C1C2 C2C3"/>
    </vehicle>
    <vehicle id="184" depart="25.53">
        <route edges="D5D6 D6E6 E6F6 F6G6 G6H6 H6H5"/>
    </vehicle>
    <vehicle id="185" depart="25.67">
        <route edges="E10D10 D10C10 C10C1 C1C2 C2C3 C3C4 C4D4 D4E4 E4F4 F4G4 G4H4 H4I4 I4J4 J4J5"/>
    </vehicle>
    <vehicle id="186" depart="25.80">
        <route edges="J4J5 J5I5 I5H5 H5G5 G5G4 G4G3 G3F3"/>
    </vehicle>
    <vehicle id="187" depart="25.93">
        <route edges="F2F1 F1E1 E1D1 D1C1 C1C2 C2C3 C3C4 C4C5 C5D5 D5E5 E5F5 F5G5 G5H5 H5I5 I5J5 J5K5 K5J5"/>
    </vehicle>
    <vehicle id="188" depart="26.07">
        <route edges="F1F2 F2E2 E2E1 E1E10 E10E9 E9F9"/>
    </vehicle>
    <vehicle id="189" depart="26.20">
        <route edges="J8K8 K8J8 J8I8 I8H8 H8G8 G8F8 F8E8 E8E9 E9E10 E10D10"/>
    </vehicle>
    <vehicle id="190" depart="26.33">
        <route edges="E10F10 F10E10 E10D10 D10C10 C10B10 B10B9 B9B8 B8B7 B7B6 B6C6 C6D6 D6E6 E6F6 F6G6 G6H6 H6I6 I6J6"/>
    </vehicle>
    <vehicle id="191" depart="26.47">
        <route edges="G5G4 G4F4 F4E4 E4E3 E3F3"/>
    </vehicle>
    <vehicle id="192" depart="26.60">
        <route edges="C8D8 D8C8 C8B8 B8B7 B7B6 B6B5 B5B4 B4C4 C4D4 D4E4 E4F4 F4G4 G4H4 H4I4 I4J4 J4K4 K4J4"/>
    </vehicle>
    <vehicle id="193" depart="26.73">
        <route edges="G8G9 G9F9 F9E9 E9E10 E10F10"/>
    </vehicle>
    <vehicle id="194" depart="26.87">
        <route edges="J2J1 J1I1 I1H1 H1G1 G1F1 F1G1"/>
    </vehicle>
    <vehicle id="195" depart="27.00">
        <route edges="C1B1 B1B2 B2B3 B3C3 C3D3 D3C3"/>
    </vehicle>
    <vehicle id="196" depart="27.13">
        <route edges="F1F2 F2E2 E2D2 D2C2 C2C3 C3C4 C4C5 C5C6 C6D6 D6E6 E6F6 F6G6 G6H6 H6I6 I6J6 J6I6"/>
    </vehicle>
    <vehicle id="197" depart="27.27">
        <route edges="D3E3 E3D3 D3C3 C3B3 B3B2 B2B1 B1B10 B10B9 B9C9 C9D9 D9E9 E9F9 F9G9 G9F9"/>
    </vehicle>
    <vehicle id="198" depart="27.40">
        <route edges="B3C3 C3B3 B3B4 B4B5 B5B6 B6B7 B7C7 C7D7 D7E7 E7F7 F7G7 G7H7 H7I7 I7I6"/>
    </vehicle>
    <vehicle id="199" depart="27.53">
        <route edges="E4E3 E3E4 E4E5 E5F5 F5G5 G5H5 H5I5 I5J5 J5K5 K5K6"/>
    </vehicle>
    <vehicle id="200" depart="27.67">
        <route edges="B1C1 C1B1 B1B2 B2B3 B3B4 B4B5 B5C5 C5D5 D5E5 E5F5 F5G5 G5H5 H5H6"/>
    </vehicle>
    <vehicle id="201" depart="27.80">
        <route edges="H6H7 H7G7 G7G6 G6G5 G5G4"/>
    </vehicle>
    <vehicle id="202" depart="27.93">
        <route edges="I9I10 I10H10 H10G10 G10F10 F10E10 E10D10 D10C10 C10B10 B10B9 B9C9"/>
    </vehicle>
    <vehicle id="203" depart="28.07">
        <route edges="E6D6 D6D5 D5D4 D4D3 D3E3 E3F3 F3G3 G3H3 H3I3 I3J3"/>
    </vehicle>
    <vehicle id="204" depart="28.20">
        <route edges="F7F6 F6E6 E6D6 D6C6 C6B6 B6B7 B7B8 B8B9 B9B10 B10B1 B1C1 C1D1 D1E1 E1F1 F1G1 G1H1 H1G1"/>
    </vehicle>
    <vehicle id="205" depart="28.33">
        <route edges="J4I4 I4H4"/>
    </vehicle>
    <vehicle id="206" depart="28.47">
        <route edges="E6D6 D6D7 D7E7 E7F7"/>
    </vehicle>
    <vehicle id="207" depart="28.60">
        <route edges="E1F1 F1E1 E1D1 D1C1 C1C10 C10C1"/>
    </vehicle>
    <vehicle id="208" depart="28.73">
        <route edges="E3E2 E2E1 E1F1 F1G1"/>
    </vehicle>
    <vehicle id="209" depart="28.87">
        <route edges="J2J1 J1I1 I1H1 H1G1 G1F1 F1E1 E1E10 E10E9 E9E8"/>
    </vehicle>
    <vehicle id="210" depart="29.00">
        <route edges="J2J3 J3I3 I3H3 H3G3 G3F3 F3E3 E3D3 D3C3 C3B3 B3B2 B2B1 B1B10 B10B9 B9C9 C9D9"/>
    </vehicle>
    <vehicle id="211" depart="29.13">
        <route edges="H1G1 G1F1 F1E1 E1D1 D1C1 C1B1 B1B10 B10B9 B9B8 B8B7 B7C7 C7D7 D7E7 E7F7 F7F6"/>
    </vehicle>
    <vehicle id="212" depart="29.27">
        <route edges="J4J5 J5I5 I5H5 H5G5 G5F5 F5E5 E5D5 D5C5 C5C6 C6C5"/>
    </vehicle>
    <vehicle id="213" depart="29.40">
        <route edges="G4H4 H4G4 G4G3 G3G2 G2G1 G1G10"/>
    </vehicle>
    <vehicle id="214" depart="29.53">
        <route edges="I2I3 I3H3 H3G3 G3F3 F3E3 E3D3 D3D2 D2D3"/>
    </vehicle>
    <vehicle id="215" depart="29.67">
        <route edges="J4I4 I4H4 H4G4 G4F4 F4E4 E4D4 D4C4 C4B4 B4B3 B3B4"/>
    </vehicle>
    <vehicle id="216" depart="29.80">
        <route edges="K10K1 K1J1 J1I1 I1H1 H1G1 G1F1 F1E1 E1D1 D1D10 D10E10"/>
    </vehicle>
    <vehicle id="217" depart="29.93">
        <route edges="J2J3 J3I3 I3H3 H3G3 G3F3 F3E3 E3D3 D3C3 C3C4 C4C5 C5C6 C6C7 C7D7 D7E7 E7F7 F7G7 G7H7 H7I7 I7J7 J7K7 K7K6"/>
    </vehicle>
    <vehicle id="218" depart="30.07">
        <route edges="G6G7 G7F7 F7E7 E7D7 D7C7 C7C8 C8C9 C9C8"/>
    </vehicle>
    <vehicle id="219" depart="30.20">
        <route edges="B8B9 B9B8 B8B7 B7B6 B6C6 C6D6 D6C6"/>
    </vehicle>
    <vehicle id="220" depart="30.33">
        <route edges="K10J10 J10J9 J9K9 K9J9"/>
    </vehicle>
    <vehicle id="221" depart="30.47">
        <route edges="H7H8 H8H7 H7H6 H6H5 H5I5 I5I4"/>
    </vehicle>
    <vehicle id="222" depart="30.60">
        <route edges="G7F7 F7F6 F6F5 F5G5 G5H5 H5H4"/>
    </vehicle>
    <vehicle id="223" depart="30.73">
        <route edges="D3E3 E3D3 D3C3 C3C4 C4C5 C5D5"/>
    </vehicle>
    <vehicle id="224" depart="30.87">
        <route edges="C8D8 D8D7 D7E7 E7F7 F7G7 G7H7 H7I7 I7J7 J7J6"/>
    </vehicle>
    <vehicle id="225" depart="31.00">
        <route edges="F3E3 E3D3 D3C3 C3C2 C2C1 C1C10"/>
    </vehicle>
    <vehicle id="226" depart="31.13">