<?xml version="1.0" encoding="UTF-8"?>

<!-- generated on 03/10/19 16:22:39 by Eclipse SUMO netconvert Version 1.1.0
<configuration xmlns:xsi="http://www.w3.org/2001/XMLSchema-instance" xsi:noNamespaceSchemaLocation="http://sumo.dlr.de/xsd/netconvertConfiguration.xsd">

    <input>
        <sumo-net-file value="net-1net.net.xml"/>
    </input>

    <processing>
        <geometry.max-grade.fix value="false"/>
        <offset.disable-normalization value="true"/>
        <lefthand value="true"/>
    </processing>

    <junctions>
        <no-turnarounds value="true"/>
        <junctions.corner-detail value="5"/>
        <junctions.limit-turn-speed value="5.5"/>
        <rectangular-lane-cut value="false"/>
    </junctions>

    <pedestrian>
        <walkingareas value="false"/>
    </pedestrian>

</configuration>
-->

<net version="1.1" junctionCornerDetail="5" lefthand="true" limitTurnSpeed="5.50" xmlns:xsi="http://www.w3.org/2001/XMLSchema-instance" xsi:noNamespaceSchemaLocation="http://sumo.dlr.de/xsd/net_file.xsd">

    <location netOffset="-18.21,372.18" convBoundary="-1.44,-10.05,415.39,281.08" origBoundary="18.21,-372.18,407.41,-115.68" projParameter="!"/>

    <edge id=":0_0" function="internal">
        <lane id=":0_0_0" index="0" speed="6.38" length="9.04" shape="396.17,174.83 393.87,175.80 391.85,175.78 390.11,174.75 388.64,172.73"/>
    </edge>
    <edge id=":0_1" function="internal">
        <lane id=":0_1_0" index="0" speed="6.33" length="8.97" shape="396.17,174.83 393.88,175.80 391.89,175.76 390.17,174.71 388.75,172.67"/>
    </edge>
    <edge id=":0_2" function="internal">
        <lane id=":0_2_0" index="0" speed="13.95" length="14.48" shape="396.17,174.83 393.01,176.70 389.89,178.44 386.73,180.12 383.45,181.76"/>
    </edge>
    <edge id=":0_3" function="internal">
        <lane id=":0_3_0" index="0" speed="13.95" length="14.76" shape="384.86,184.64 397.82,177.58"/>
    </edge>
    <edge id=":0_4" function="internal">
        <lane id=":0_4_0" index="0" speed="7.96" length="14.34" shape="384.86,184.64 388.09,182.43 389.80,179.71 389.98,176.47 388.64,172.73"/>
    </edge>
    <edge id=":0_5" function="internal">
        <lane id=":0_5_0" index="0" speed="8.02" length="14.39" shape="384.86,184.64 388.09,182.43 389.81,179.70 390.03,176.45 388.75,172.67"/>
    </edge>
    <edge id=":0_6" function="internal">
        <lane id=":0_6_0" index="0" speed="3.65" length="2.56" shape="384.86,184.64 385.59,183.39 385.59,182.50 385.41,182.36"/>
    </edge>
    <edge id=":0_15" function="internal">
        <lane id=":0_15_0" index="0" speed="3.65" length="2.11" shape="385.41,182.36 384.88,181.95 383.45,181.76"/>
    </edge>
    <edge id=":0_7" function="internal">
        <lane id=":0_7_0" index="0" speed="6.52" length="9.14" shape="385.91,174.16 386.73,176.56 386.59,178.63 385.50,180.36 383.45,181.76"/>
    </edge>
    <edge id=":0_8" function="internal">
        <lane id=":0_8_0" index="0" speed="7.85" length="4.13" shape="385.91,174.16 388.19,177.42 388.32,177.49"/>
    </edge>
    <edge id=":0_9" function="internal">
        <lane id=":0_9_0" index="0" speed="3.21" length="3.08" shape="385.91,174.16 388.64,172.73"/>
    </edge>
    <edge id=":0_10" function="internal">
        <lane id=":0_10_0" index="0" speed="3.65" length="2.06" shape="385.91,174.16 387.18,174.85 387.79,174.84"/>
    </edge>
    <edge id=":0_16" function="internal">
        <lane id=":0_16_0" index="0" speed="7.85" length="10.25" shape="388.32,177.49 390.94,179.07 394.15,179.13 397.82,177.58"/>
    </edge>
    <edge id=":0_17" function="internal">
        <lane id=":0_17_0" index="0" speed="3.65" length="2.62" shape="387.79,174.84 388.07,174.83 388.60,174.11 388.75,172.67"/>
    </edge>
    <edge id=":0_11" function="internal">
        <lane id=":0_11_0" index="0" speed="6.46" length="9.08" shape="385.81,174.21 386.66,176.59 386.56,178.65 385.49,180.37 383.45,181.76"/>
    </edge>
    <edge id=":0_12" function="internal">
        <lane id=":0_12_0" index="0" speed="7.90" length="14.42" shape="385.81,174.21 388.14,177.44 390.92,179.08 394.15,179.13 397.82,177.58"/>
    </edge>
    <edge id=":0_13" function="internal">
        <lane id=":0_13_0" index="0" speed="3.65" length="4.67" shape="385.81,174.21 387.08,174.90 387.97,174.89 388.49,174.16 388.64,172.73"/>
    </edge>
    <edge id=":0_14" function="internal">
        <lane id=":0_14_0" index="0" speed="3.28" length="3.32" shape="385.81,174.21 388.75,172.67"/>
    </edge>
    <edge id=":10_0" function="internal">
        <lane id=":10_0_0" index="0" speed="10.24" length="9.42" shape="148.36,250.03 147.70,252.68 146.81,254.40 145.38,255.76 143.11,257.37"/>
    </edge>
    <edge id=":10_1" function="internal">
        <lane id=":10_1_0" index="0" speed="9.77" length="4.42" shape="148.36,250.03 148.18,252.86 148.50,254.41"/>
    </edge>
    <edge id=":10_2" function="internal">
        <lane id=":10_2_0" index="0" speed="3.65" length="2.20" shape="148.36,250.03 148.92,251.36 149.52,251.82"/>
    </edge>
    <edge id=":10_9" function="internal">
        <lane id=":10_9_0" index="0" speed="9.77" length="7.33" shape="148.50,254.41 148.73,255.57 150.04,258.18 152.08,260.67"/>
    </edge>
    <edge id=":10_10" function="internal">
        <lane id=":10_10_0" index="0" speed="3.65" length="2.47" shape="149.52,251.82 149.63,251.90 150.49,251.66 151.50,250.63"/>
    </edge>
    <edge id=":10_3" function="internal">
        <lane id=":10_3_0" index="0" speed="8.45" length="8.64" shape="154.35,258.42 152.81,256.55 151.82,254.63 151.38,252.66 151.50,250.63"/>
    </edge>
    <edge id=":10_4" function="internal">
        <lane id=":10_4_0" index="0" speed="8.05" length="12.43" shape="154.35,258.42 151.71,256.39 148.95,255.54 146.09,255.87 143.11,257.37"/>
    </edge>
    <edge id=":10_5" function="internal">
        <lane id=":10_5_0" index="0" speed="3.65" length="4.67" shape="154.35,258.42 152.94,258.13 152.09,258.41 151.81,259.26 152.08,260.67"/>
    </edge>
    <edge id=":10_6" function="internal">
        <lane id=":10_6_0" index="0" speed="6.55" length="7.91" shape="144.93,260.00 146.82,259.05 148.65,258.84 150.40,259.38 152.08,260.67"/>
    </edge>
    <edge id=":10_7" function="internal">
        <lane id=":10_7_0" index="0" speed="11.43" length="11.85" shape="144.93,260.00 147.56,258.03 149.41,256.09 150.66,253.77 151.50,250.63"/>
    </edge>
    <edge id=":10_8" function="internal">
        <lane id=":10_8_0" index="0" speed="3.65" length="2.34" shape="144.93,260.00 145.46,258.66 145.34,257.78"/>
    </edge>
    <edge id=":10_11" function="internal">
        <lane id=":10_11_0" index="0" speed="3.65" length="2.34" shape="145.34,257.78 144.56,257.34 143.11,257.37"/>
    </edge>
    <edge id=":12_0" function="internal">
        <lane id=":12_0_0" index="0" speed="11.59" length="10.86" shape="273.01,12.40 270.20,13.79 267.99,14.56 265.70,14.67 262.67,14.09"/>
    </edge>
    <edge id=":12_1" function="internal">
        <lane id=":12_1_0" index="0" speed="8.01" length="5.02" shape="273.01,12.40 269.90,14.57 269.24,15.61"/>
    </edge>
    <edge id=":12_2" function="internal">
        <lane id=":12_2_0" index="0" speed="3.65" length="2.34" shape="273.01,12.40 272.31,13.65 272.31,14.55"/>
    </edge>
    <edge id=":12_9" function="internal">
        <lane id=":12_9_0" index="0" speed="8.01" length="8.89" shape="269.24,15.61 268.20,17.23 267.91,20.38 269.04,24.01"/>
    </edge>
    <edge id=":12_10" function="internal">
        <lane id=":12_10_0" index="0" speed="3.65" length="2.34" shape="272.31,14.55 273.03,15.08 274.46,15.25"/>
    </edge>
    <edge id=":12_3" function="internal">
        <lane id=":12_3_0" index="0" speed="6.51" length="8.85" shape="271.93,22.64 271.21,20.33 271.40,18.33 272.48,16.64 274.46,15.25"/>
    </edge>
    <edge id=":12_4" function="internal">
        <lane id=":12_4_0" index="0" speed="10.99" length="13.01" shape="271.93,22.64 270.11,19.48 267.96,17.00 265.48,15.20 262.67,14.09"/>
    </edge>
    <edge id=":12_5" function="internal">
        <lane id=":12_5_0" index="0" speed="3.65" length="4.67" shape="271.93,22.64 270.69,21.90 269.80,21.88 269.25,22.58 269.04,24.01"/>
    </edge>
    <edge id=":12_6" function="internal">
        <lane id=":12_6_0" index="0" speed="9.78" length="10.21" shape="261.87,17.19 264.00,18.05 265.91,19.48 267.59,21.46 269.04,24.01"/>
    </edge>
    <edge id=":12_7" function="internal">
        <lane id=":12_7_0" index="0" speed="12.68" length="13.07" shape="261.87,17.19 265.25,17.73 268.31,17.54 271.29,16.68 274.46,15.25"/>
    </edge>
    <edge id=":12_8" function="internal">
        <lane id=":12_8_0" index="0" speed="3.65" length="2.44" shape="261.87,17.19 263.23,16.72 263.82,16.04 263.80,15.94"/>
    </edge>
    <edge id=":12_11" function="internal">
        <lane id=":12_11_0" index="0" speed="3.65" length="2.23" shape="263.80,15.94 263.63,15.17 262.67,14.09"/>
    </edge>
    <edge id=":14_0" function="internal">
        <lane id=":14_0_0" index="0" speed="6.51" length="8.99" shape="327.33,126.88 324.98,127.59 322.95,127.38 321.26,126.25 319.91,124.19"/>
    </edge>
    <edge id=":14_1" function="internal">
        <lane id=":14_1_0" index="0" speed="14.00" length="14.28" shape="327.33,126.88 314.53,133.19"/>
    </edge>
    <edge id=":14_2" function="internal">
        <lane id=":14_2_0" index="0" speed="3.65" length="2.34" shape="327.33,126.88 326.58,128.11 326.56,129.00"/>
    </edge>
    <edge id=":14_9" function="internal">
        <lane id=":14_9_0" index="0" speed="3.65" length="2.34" shape="326.56,129.00 327.26,129.56 328.69,129.78"/>
    </edge>
    <edge id=":14_3" function="internal">
        <lane id=":14_3_0" index="0" speed="14.00" length="14.14" shape="316.01,136.03 328.69,129.78"/>
    </edge>
    <edge id=":14_4" function="internal">
        <lane id=":14_4_0" index="0" speed="8.09" length="5.65" shape="316.01,136.03 319.11,133.80 320.07,132.24"/>
    </edge>
    <edge id=":14_5" function="internal">
        <lane id=":14_5_0" index="0" speed="3.65" length="2.34" shape="316.01,136.03 316.70,134.77 316.68,133.87"/>
    </edge>
    <edge id=":14_10" function="internal">
        <lane id=":14_10_0" index="0" speed="8.09" length="8.44" shape="320.07,132.24 320.79,131.08 321.06,127.88 319.91,124.19"/>
    </edge>
    <edge id=":14_11" function="internal">
        <lane id=":14_11_0" index="0" speed="3.65" length="2.34" shape="316.68,133.87 315.96,133.35 314.53,133.19"/>
    </edge>
    <edge id=":14_6" function="internal">
        <lane id=":14_6_0" index="0" speed="6.61" length="9.08" shape="317.02,125.56 317.76,127.94 317.59,130.01 316.52,131.76 314.53,133.19"/>
    </edge>
    <edge id=":14_7" function="internal">
        <lane id=":14_7_0" index="0" speed="8.00" length="14.13" shape="317.02,125.56 319.15,128.79 321.80,130.57 324.98,130.90 328.69,129.78"/>
    </edge>
    <edge id=":14_8" function="internal">
        <lane id=":14_8_0" index="0" speed="3.65" length="4.67" shape="317.02,125.56 318.25,126.30 319.15,126.32 319.70,125.62 319.91,124.19"/>
    </edge>
    <edge id=":15_0" function="internal">
        <lane id=":15_0_0" index="0" speed="3.65" length="4.67" shape="87.50,111.62 87.99,112.97 88.67,113.55 89.54,113.36 90.61,112.38"/>
    </edge>
    <edge id=":15_1" function="internal">
        <lane id=":15_1_0" index="0" speed="3.65" length="4.67" shape="91.81,114.33 90.47,114.85 89.91,115.54 90.12,116.41 91.12,117.45"/>
    </edge>
    <edge id=":17_0" function="internal">
        <lane id=":17_0_0" index="0" speed="6.77" length="8.62" shape="110.44,13.48 109.30,15.45 107.76,16.69 105.81,17.21 103.46,17.01"/>
    </edge>
    <edge id=":17_1" function="internal">
        <lane id=":17_1_0" index="0" speed="14.00" length="13.29" shape="110.44,13.48 109.22,16.75 108.32,19.78 107.65,22.87 107.13,26.32"/>
    </edge>
    <edge id=":17_2" function="internal">
        <lane id=":17_2_0" index="0" speed="3.65" length="2.34" shape="110.44,13.48 110.73,14.90 111.33,15.57"/>
    </edge>
    <edge id=":17_9" function="internal">
        <lane id=":17_9_0" index="0" speed="3.65" length="2.34" shape="111.33,15.57 112.22,15.49 113.41,14.68"/>
    </edge>
    <edge id=":17_3" function="internal">
        <lane id=":17_3_0" index="0" speed="14.00" length="12.48" shape="110.30,26.72 110.79,23.40 111.39,20.58 112.22,17.82 113.41,14.68"/>
    </edge>
    <edge id=":17_4" function="internal">
        <lane id=":17_4_0" index="0" speed="8.02" length="5.37" shape="110.30,26.72 110.26,23.12 109.59,21.49"/>
    </edge>
    <edge id=":17_5" function="internal">
        <lane id=":17_5_0" index="0" speed="3.65" length="2.34" shape="110.30,26.72 109.66,25.43 108.92,24.93"/>
    </edge>
    <edge id=":17_10" function="internal">
        <lane id=":17_10_0" index="0" speed="8.02" length="7.93" shape="109.59,21.49 109.10,20.30 106.84,18.27 103.46,17.01"/>
    </edge>
    <edge id=":17_11" function="internal">
        <lane id=":17_11_0" index="0" speed="3.65" length="2.34" shape="108.92,24.93 108.08,25.23 107.13,26.32"/>
    </edge>
    <edge id=":17_6" function="internal">
        <lane id=":17_6_0" index="0" speed="6.52" length="8.46" shape="102.78,20.14 104.92,20.94 106.37,22.23 107.10,24.03 107.13,26.32"/>
    </edge>
    <edge id=":17_7" function="internal">
        <lane id=":17_7_0" index="0" speed="8.23" length="13.19" shape="102.78,20.14 106.35,20.44 109.31,19.63 111.66,17.71 113.41,14.68"/>
    </edge>
    <edge id=":17_8" function="internal">
        <lane id=":17_8_0" index="0" speed="3.65" length="4.67" shape="102.78,20.14 104.12,19.62 104.68,18.92 104.46,18.05 103.46,17.01"/>
    </edge>
    <edge id=":2_0" function="internal">
        <lane id=":2_0_0" index="0" speed="7.22" length="10.13" shape="364.37,110.65 361.63,111.17 359.30,110.78 357.38,109.49 355.87,107.30"/>
    </edge>
    <edge id=":2_1" function="internal">
        <lane id=":2_1_0" index="0" speed="13.95" length="15.04" shape="364.37,110.65 360.82,111.87 357.30,113.19 353.82,114.62 350.39,116.15"/>
    </edge>
    <edge id=":2_2" function="internal">
        <lane id=":2_2_0" index="0" speed="7.70" length="14.56" shape="364.37,110.65 360.71,112.46 358.70,114.96 358.34,118.13 359.63,122.00"/>
    </edge>
    <edge id=":2_3" function="internal">
        <lane id=":2_3_0" index="0" speed="7.74" length="14.60" shape="364.37,110.65 360.71,112.46 358.69,114.96 358.29,118.16 359.53,122.05"/>
    </edge>
    <edge id=":2_4" function="internal">
        <lane id=":2_4_0" index="0" speed="6.25" length="9.03" shape="362.51,120.60 361.71,118.22 361.93,116.23 363.15,114.66 365.38,113.48"/>
    </edge>
    <edge id=":2_5" function="internal">
        <lane id=":2_5_0" index="0" speed="14.00" length="14.87" shape="362.51,120.60 355.87,107.30"/>
    </edge>
    <edge id=":2_6" function="internal">
        <lane id=":2_6_0" index="0" speed="8.21" length="14.62" shape="362.51,120.60 360.21,117.26 357.42,115.40 354.15,115.03 350.39,116.15"/>
    </edge>
    <edge id=":2_7" function="internal">
        <lane id=":2_7_0" index="0" speed="3.65" length="4.67" shape="362.51,120.60 361.27,119.87 360.37,119.86 359.83,120.57 359.63,122.00"/>
    </edge>
    <edge id=":2_8" function="internal">
        <lane id=":2_8_0" index="0" speed="3.28" length="3.31" shape="362.51,120.60 359.53,122.05"/>
    </edge>
    <edge id=":2_9" function="internal">
        <lane id=":2_9_0" index="0" speed="6.30" length="9.09" shape="362.41,120.65 361.65,118.25 361.89,116.25 363.13,114.66 365.38,113.48"/>
    </edge>
    <edge id=":2_10" function="internal">
        <lane id=":2_10_0" index="0" speed="14.00" length="14.87" shape="362.41,120.65 355.87,107.30"/>
    </edge>
    <edge id=":2_11" function="internal">
        <lane id=":2_11_0" index="0" speed="8.15" length="6.19" shape="362.41,120.65 360.16,117.28 358.39,116.07"/>
    </edge>
    <edge id=":2_12" function="internal">
        <lane id=":2_12_0" index="0" speed="3.21" length="3.09" shape="362.41,120.65 359.63,122.00"/>
    </edge>
    <edge id=":2_13" function="internal">
        <lane id=":2_13_0" index="0" speed="3.65" length="2.34" shape="362.41,120.65 361.16,119.92 360.27,119.91"/>
    </edge>
    <edge id=":2_24" function="internal">
        <lane id=":2_24_0" index="0" speed="8.15" length="8.39" shape="358.39,116.07 357.40,115.41 354.15,115.03 350.39,116.15"/>
    </edge>
    <edge id=":2_25" function="internal">
        <lane id=":2_25_0" index="0" speed="3.65" length="2.34" shape="360.27,119.91 359.72,120.62 359.53,122.05"/>
    </edge>
    <edge id=":2_14" function="internal">
        <lane id=":2_14_0" index="0" speed="6.74" length="9.54" shape="351.74,119.05 354.18,118.33 356.31,118.58 358.12,119.80 359.63,122.00"/>
    </edge>
    <edge id=":2_15" function="internal">
        <lane id=":2_15_0" index="0" speed="6.69" length="9.48" shape="351.74,119.05 354.16,118.34 356.27,118.60 358.06,119.83 359.53,122.05"/>
    </edge>
    <edge id=":2_16" function="internal">
        <lane id=":2_16_0" index="0" speed="13.95" length="14.74" shape="351.74,119.05 355.12,117.53 358.49,116.10 361.90,114.76 365.38,113.48"/>
    </edge>
    <edge id=":2_17" function="internal">
        <lane id=":2_17_0" index="0" speed="7.96" length="14.28" shape="351.74,119.05 355.03,116.91 356.81,114.23 357.09,111.03 355.87,107.30"/>
    </edge>
    <edge id=":2_18" function="internal">
        <lane id=":2_18_0" index="0" speed="3.65" length="4.67" shape="351.74,119.05 352.49,117.82 352.51,116.93 351.81,116.37 350.39,116.15"/>
    </edge>
    <edge id=":2_19" function="internal">
        <lane id=":2_19_0" index="0" speed="6.46" length="9.03" shape="353.00,108.72 353.77,111.08 353.60,113.10 352.47,114.79 350.39,116.15"/>
    </edge>
    <edge id=":2_20" function="internal">
        <lane id=":2_20_0" index="0" speed="14.00" length="14.84" shape="353.00,108.72 359.63,122.00"/>
    </edge>
    <edge id=":2_21" function="internal">
        <lane id=":2_21_0" index="0" speed="14.00" length="14.84" shape="353.00,108.72 359.53,122.05"/>
    </edge>
    <edge id=":2_22" function="internal">
        <lane id=":2_22_0" index="0" speed="8.52" length="5.95" shape="353.00,108.72 355.22,111.94 356.91,113.07"/>
    </edge>
    <edge id=":2_23" function="internal">
        <lane id=":2_23_0" index="0" speed="3.65" length="2.34" shape="353.00,108.72 354.25,109.44 355.14,109.44"/>
    </edge>
    <edge id=":2_26" function="internal">
        <lane id=":2_26_0" index="0" speed="8.52" length="8.82" shape="356.91,113.07 358.02,113.81 361.41,114.32 365.38,113.48"/>
    </edge>
    <edge id=":2_27" function="internal">
        <lane id=":2_27_0" index="0" speed="3.65" length="2.34" shape="355.14,109.44 355.68,108.73 355.87,107.30"/>
    </edge>
    <edge id=":22_0" function="internal">
        <lane id=":22_0_0" index="0" speed="6.34" length="9.04" shape="301.34,232.80 298.93,233.48 296.94,233.19 295.37,231.93 294.21,229.71"/>
    </edge>
    <edge id=":22_1" function="internal">
        <lane id=":22_1_0" index="0" speed="14.00" length="14.42" shape="301.34,232.80 288.15,238.62"/>
    </edge>
    <edge id=":22_2" function="internal">
        <lane id=":22_2_0" index="0" speed="3.65" length="2.34" shape="301.34,232.80 300.57,234.02 300.53,234.91"/>
    </edge>
    <edge id=":22_9" function="internal">
        <lane id=":22_9_0" index="0" speed="3.65" length="2.34" shape="300.53,234.91 301.22,235.48 302.64,235.73"/>
    </edge>
    <edge id=":22_3" function="internal">
        <lane id=":22_3_0" index="0" speed="14.00" length="14.43" shape="289.43,241.55 302.64,235.73"/>
    </edge>
    <edge id=":22_4" function="internal">
        <lane id=":22_4_0" index="0" speed="8.27" length="5.81" shape="289.43,241.55 292.63,239.54 293.80,237.88"/>
    </edge>
    <edge id=":22_5" function="internal">
        <lane id=":22_5_0" index="0" speed="3.65" length="2.34" shape="289.43,241.55 290.21,240.34 290.26,239.45"/>
    </edge>
    <edge id=":22_10" function="internal">
        <lane id=":22_10_0" index="0" speed="8.27" length="8.52" shape="293.80,237.88 294.49,236.90 295.02,233.62 294.21,229.71"/>
    </edge>
    <edge id=":22_11" function="internal">
        <lane id=":22_11_0" index="0" speed="3.65" length="2.34" shape="290.26,239.45 289.57,238.87 288.15,238.62"/>
    </edge>
    <edge id=":22_6" function="internal">
        <lane id=":22_6_0" index="0" speed="6.83" length="9.45" shape="291.19,230.76 291.74,233.38 291.42,235.56 290.22,237.31 288.15,238.62"/>
    </edge>
    <edge id=":22_7" function="internal">
        <lane id=":22_7_0" index="0" speed="7.86" length="14.51" shape="291.19,230.76 293.04,234.33 295.57,236.35 298.77,236.82 302.64,235.73"/>
    </edge>
    <edge id=":22_8" function="internal">
        <lane id=":22_8_0" index="0" speed="3.65" length="4.67" shape="291.19,230.76 292.34,231.63 293.23,231.75 293.85,231.11 294.21,229.71"/>
    </edge>
    <edge id=":24_0" function="internal">
        <lane id=":24_0_0" index="0" speed="6.72" length="9.22" shape="54.39,246.09 53.45,248.46 52.01,250.02 50.06,250.76 47.60,250.68"/>
    </edge>
    <edge id=":24_1" function="internal">
        <lane id=":24_1_0" index="0" speed="7.98" length="14.23" shape="54.39,246.09 54.00,249.97 54.95,253.04 57.24,255.29 60.88,256.72"/>
    </edge>
    <edge id=":24_2" function="internal">
        <lane id=":24_2_0" index="0" speed="3.65" length="4.67" shape="54.39,246.09 54.88,247.44 55.56,248.02 56.44,247.83 57.50,246.86"/>
    </edge>
    <edge id=":24_3" function="internal">
        <lane id=":24_3_0" index="0" speed="6.49" length="9.03" shape="61.62,253.60 59.31,252.69 57.85,251.27 57.25,249.32 57.50,246.86"/>
    </edge>
    <edge id=":24_4" function="internal">
        <lane id=":24_4_0" index="0" speed="14.00" length="14.31" shape="61.62,253.60 47.60,250.68"/>
    </edge>
    <edge id=":24_5" function="internal">
        <lane id=":24_5_0" index="0" speed="3.65" length="2.34" shape="61.62,253.60 60.26,254.10 59.69,254.79"/>
    </edge>
    <edge id=":24_9" function="internal">
        <lane id=":24_9_0" index="0" speed="3.65" length="2.34" shape="59.69,254.79 59.89,255.66 60.88,256.72"/>
    </edge>
    <edge id=":24_6" function="internal">
        <lane id=":24_6_0" index="0" speed="14.00" length="14.13" shape="47.04,253.83 60.88,256.72"/>
    </edge>
    <edge id=":24_7" function="internal">
        <lane id=":24_7_0" index="0" speed="8.18" length="5.57" shape="47.04,253.83 50.83,253.96 52.50,253.34"/>
    </edge>
    <edge id=":24_8" function="internal">
        <lane id=":24_8_0" index="0" speed="3.65" length="2.34" shape="47.04,253.83 48.36,253.26 48.90,252.54"/>
    </edge>
    <edge id=":24_10" function="internal">
        <lane id=":24_10_0" index="0" speed="8.18" length="8.57" shape="52.50,253.34 53.84,252.84 56.06,250.47 57.50,246.86"/>
    </edge>
    <edge id=":24_11" function="internal">
        <lane id=":24_11_0" index="0" speed="3.65" length="2.34" shape="48.90,252.54 48.64,251.68 47.60,250.68"/>
    </edge>
    <edge id=":25_0" function="internal">
        <lane id=":25_0_0" index="0" speed="14.00" length="14.52" shape="179.66,145.09 165.50,141.87"/>
    </edge>
    <edge id=":25_1" function="internal">
        <lane id=":25_1_0" index="0" speed="8.02" length="6.05" shape="179.66,145.09 175.78,144.73 173.73,145.38"/>
    </edge>
    <edge id=":25_2" function="internal">
        <lane id=":25_2_0" index="0" speed="3.65" length="2.34" shape="179.66,145.09 178.30,145.58 177.73,146.27"/>
    </edge>
    <edge id=":25_9" function="internal">
        <lane id=":25_9_0" index="0" speed="8.02" length="8.21" shape="173.73,145.38 172.72,145.70 170.47,148.02 169.03,151.67"/>
    </edge>
    <edge id=":25_10" function="internal">
        <lane id=":25_10_0" index="0" speed="3.65" length="2.34" shape="177.73,146.27 177.93,147.14 178.91,148.20"/>
    </edge>
    <edge id=":25_3" function="internal">
        <lane id=":25_3_0" index="0" speed="6.53" length="9.09" shape="172.14,152.41 173.06,150.08 174.49,148.60 176.44,147.97 178.91,148.20"/>
    </edge>
    <edge id=":25_4" function="internal">
        <lane id=":25_4_0" index="0" speed="7.96" length="14.28" shape="172.14,152.41 172.50,148.50 171.52,145.44 169.18,143.23 165.50,141.87"/>
    </edge>
    <edge id=":25_5" function="internal">
        <lane id=":25_5_0" index="0" speed="3.65" length="4.67" shape="172.14,152.41 171.64,151.06 170.96,150.48 170.09,150.68 169.03,151.67"/>
    </edge>
    <edge id=":25_6" function="internal">
        <lane id=":25_6_0" index="0" speed="6.46" length="9.03" shape="164.83,145.00 167.16,145.86 168.64,147.26 169.26,149.19 169.03,151.67"/>
    </edge>
    <edge id=":25_7" function="internal">
        <lane id=":25_7_0" index="0" speed="14.00" length="14.44" shape="164.83,145.00 178.91,148.20"/>
    </edge>
    <edge id=":25_8" function="internal">
        <lane id=":25_8_0" index="0" speed="3.65" length="2.34" shape="164.83,145.00 166.17,144.47 166.73,143.77"/>
    </edge>
    <edge id=":25_11" function="internal">
        <lane id=":25_11_0" index="0" speed="3.65" length="2.34" shape="166.73,143.77 166.50,142.91 165.50,141.87"/>
    </edge>
    <edge id=":27_0" function="internal">
        <lane id=":27_0_0" index="0" speed="14.00" length="13.79" shape="92.82,126.31 79.44,122.93"/>
    </edge>
    <edge id=":27_1" function="internal">
        <lane id=":27_1_0" index="0" speed="8.01" length="5.51" shape="92.82,126.31 89.04,126.04 87.40,126.59"/>
    </edge>
    <edge id=":27_2" function="internal">
        <lane id=":27_2_0" index="0" speed="3.65" length="2.34" shape="92.82,126.31 91.48,126.84 90.92,127.54"/>
    </edge>
    <edge id=":27_9" function="internal">
        <lane id=":27_9_0" index="0" speed="8.01" length="8.36" shape="87.40,126.59 86.05,127.04 83.85,129.29 82.43,132.80"/>
    </edge>
    <edge id=":27_10" function="internal">
        <lane id=":27_10_0" index="0" speed="3.65" length="2.34" shape="90.92,127.54 91.14,128.40 92.15,129.44"/>
    </edge>
    <edge id=":27_3" function="internal">
        <lane id=":27_3_0" index="0" speed="6.51" length="8.83" shape="85.54,133.57 86.44,131.33 87.84,129.90 89.74,129.27 92.15,129.44"/>
    </edge>
    <edge id=":27_4" function="internal">
        <lane id=":27_4_0" index="0" speed="8.03" length="13.86" shape="85.54,133.57 85.92,129.80 85.04,126.78 82.88,124.48 79.44,122.93"/>
    </edge>
    <edge id=":27_5" function="internal">
        <lane id=":27_5_0" index="0" speed="3.65" length="4.67" shape="85.54,133.57 85.05,132.21 84.37,131.63 83.50,131.82 82.43,132.80"/>
    </edge>
    <edge id=":27_6" function="internal">
        <lane id=":27_6_0" index="0" speed="6.54" length="8.85" shape="78.55,126.00 80.74,126.99 82.11,128.46 82.68,130.39 82.43,132.80"/>
    </edge>
    <edge id=":27_7" function="internal">
        <lane id=":27_7_0" index="0" speed="14.00" length="14.03" shape="78.55,126.00 92.15,129.44"/>
    </edge>
    <edge id=":27_8" function="internal">
        <lane id=":27_8_0" index="0" speed="3.65" length="2.34" shape="78.55,126.00 79.92,125.57 80.53,124.91"/>
    </edge>
    <edge id=":27_11" function="internal">
        <lane id=":27_11_0" index="0" speed="3.65" length="2.34" shape="80.53,124.91 80.37,124.03 79.44,122.93"/>
    </edge>
    <edge id=":4_0" function="internal">
        <lane id=":4_0_0" index="0" speed="14.00" length="14.40" shape="183.44,92.64 180.04,106.63"/>
    </edge>
    <edge id=":4_1" function="internal">
        <lane id=":4_1_0" index="0" speed="8.06" length="5.89" shape="183.44,92.64 183.07,96.49 183.68,98.42"/>
    </edge>
    <edge id=":4_2" function="internal">
        <lane id=":4_2_0" index="0" speed="3.65" length="2.34" shape="183.44,92.64 183.93,94.00 184.62,94.57"/>
    </edge>
    <edge id=":4_9" function="internal">
        <lane id=":4_9_0" index="0" speed="8.06" length="8.32" shape="183.68,98.42 184.03,99.55 186.32,101.84 189.92,103.35"/>
    </edge>
    <edge id=":4_10" function="internal">
        <lane id=":4_10_0" index="0" speed="3.65" length="2.34" shape="184.62,94.57 185.49,94.37 186.55,93.40"/>
    </edge>
    <edge id=":4_3" function="internal">
        <lane id=":4_3_0" index="0" speed="6.58" length="9.12" shape="190.73,100.25 188.41,99.28 186.94,97.82 186.32,95.85 186.55,93.40"/>
    </edge>
    <edge id=":4_4" function="internal">
        <lane id=":4_4_0" index="0" speed="7.97" length="14.26" shape="190.73,100.25 186.84,99.80 183.76,100.72 181.49,102.99 180.04,106.63"/>
    </edge>
    <edge id=":4_5" function="internal">
        <lane id=":4_5_0" index="0" speed="3.65" length="4.67" shape="190.73,100.25 189.37,100.72 188.78,101.39 188.96,102.27 189.92,103.35"/>
    </edge>
    <edge id=":4_6" function="internal">
        <lane id=":4_6_0" index="0" speed="6.47" length="9.03" shape="183.15,107.39 184.07,105.08 185.51,103.64 187.46,103.06 189.92,103.35"/>
    </edge>
    <edge id=":4_7" function="internal">
        <lane id=":4_7_0" index="0" speed="14.00" length="14.40" shape="183.15,107.39 186.55,93.40"/>
    </edge>
    <edge id=":4_8" function="internal">
        <lane id=":4_8_0" index="0" speed="3.65" length="2.34" shape="183.15,107.39 182.65,106.03 181.97,105.45"/>
    </edge>
    <edge id=":4_11" function="internal">
        <lane id=":4_11_0" index="0" speed="3.65" length="2.34" shape="181.97,105.45 181.10,105.65 180.04,106.63"/>
    </edge>
    <edge id=":5_0" function="internal">
        <lane id=":5_0_0" index="0" speed="6.46" length="9.03" shape="232.06,140.48 231.20,142.81 229.81,144.29 227.87,144.91 225.40,144.69"/>
    </edge>
    <edge id=":5_1" function="internal">
        <lane id=":5_1_0" index="0" speed="8.09" length="14.21" shape="232.06,140.48 231.78,144.38 232.79,147.46 235.07,149.72 238.64,151.16"/>
    </edge>
    <edge id=":5_2" function="internal">
        <lane id=":5_2_0" index="0" speed="3.65" length="4.67" shape="232.06,140.48 232.59,141.82 233.29,142.37 234.16,142.15 235.19,141.14"/>
    </edge>
    <edge id=":5_3" function="internal">