<?xml version="1.0" encoding="UTF-8"?>

<!-- generated on 05/18/19 20:18:04 by Eclipse SUMO duarouter Version 1.1.0
<configuration xmlns:xsi="http://www.w3.org/2001/XMLSchema-instance" xsi:noNamespaceSchemaLocation="http://sumo.dlr.de/xsd/duarouterConfiguration.xsd">

    <input>
        <net-file value="net.net.xml"/>
        <route-files value="trips.trips.xml"/>
    </input>

    <output>
        <output-file value="output/./rou150.rou.xml"/>
        <alternatives-output value="output/./rou150.rou.alt.xml"/>
    </output>

    <time>
        <begin value="1.0"/>
        <end value="101.0"/>
    </time>

    <report>
        <no-warnings value="true"/>
        <ignore-errors value="true"/>
        <no-step-log value="true"/>
    </report>

</configuration>
-->

<routes xmlns:xsi="http://www.w3.org/2001/XMLSchema-instance" xsi:noNamespaceSchemaLocation="http://sumo.dlr.de/xsd/routes_file.xsd">
    <vehicle id="0" depart="1.00">
        <route edges="47 4 16"/>
    </vehicle>
    <vehicle id="1" depart="1.67">
        <route edges="14 3 20 50 22 53"/>
    </vehicle>
    <vehicle id="2" depart="2.33">
        <route edges="46 47 4 43 63 12 6 14 3"/>
    </vehicle>
    <vehicle id="3" depart="3.00">
        <route edges="39 62 68 43"/>
    </vehicle>
    <vehicle id="4" depart="3.67">
        <route edges="55 64 7 13 62 68 5"/>
    </vehicle>
    <vehicle id="5" depart="4.33">
        <route edges="37 64 7"/>
    </vehicle>
    <vehicle id="6" depart="5.00">
        <route edges="63 12 6 58 20"/>
    </vehicle>
    <vehicle id="7" depart="5.67">
        <route edges="7"/>
    </vehicle>
    <vehicle id="8" depart="6.33">
        <route edges="17 16 19 52 23"/>
    </vehicle>
    <vehicle id="9" depart="7.00">
        <route edges="10 45"/>
    </vehicle>
    <vehicle id="10" depart="7.67">
        <route edges="46 47 4 43 63 12 6 14 3"/>
    </vehicle>
    <vehicle id="11" depart="8.33">
        <route edges="13 27 6 58 71"/>
    </vehicle>
    <vehicle id="12" depart="9.00">
        <route edges="47 4 43"/>
    </vehicle>
    <vehicle id="13" depart="9.67">
        <route edges="22 53 41 39 32"/>
    </vehicle>
    <vehicle id="14" depart="10.33">
        <route edges="48 49 21"/>
    </vehicle>
    <vehicle id="15" depart="11.00">
        <route edges="48 49"/>
    </vehicle>
    <vehicle id="16" depart="11.67">
        <route edges="47 4 43 63 27"/>
    </vehicle>
    <vehicle id="17" depart="12.33">
        <route edges="13 62 68 5 28"/>
    </vehicle>
    <vehicle id="18" depart="13.00">
        <route edges="41 67 68 43"/>
    </vehicle>
    <vehicle id="19" depart="13.67">
        <route edges="53 52 23 22"/>
    </vehicle>
    <vehicle id="20" depart="14.33">
        <route edges="3 20 48"/>
    </vehicle>
    <vehicle id="21" depart="15.00">
        <route edges="51 21 71"/>
    </vehicle>
    <vehicle id="22" depart="15.67">
        <route edges="43 63 12 60"/>
    </vehicle>
    <vehicle id="23" depart="16.33">
        <route edges="19 52 23 51 48 37"/>
    </vehicle>
    <vehicle id="24" depart="17.00">
        <route edges="64 58 20 50 22 45 10"/>
    </vehicle>
    <vehicle id="25" depart="17.67">
        <route edges="48 57 22 53 41"/>
    </vehicle>
    <vehicle id="26" depart="18.33">
        <route edges="16 19 52 23 51 48 57"/>
    </vehicle>
    <vehicle id="27" depart="19.00">
        <route edges="36 57 30"/>
    </vehicle>
    <vehicle id="28" depart="19.67">
        <route edges="16 17 43 63 62"/>
    </vehicle>
    <vehicle id="29" depart="20.33">
        <route edges="55 64 58"/>
    </vehicle>
    <vehicle id="30" depart="21.00">
        <route edges="48 57 22 53 41"/>
    </vehicle>
    <vehicle id="31" depart="21.67">
        <route edges="32 39 27"/>
    </vehicle>
    <vehicle id="32" depart="22.33">
        <route edges="63 62"/>
    </vehicle>
    <vehicle id="33" depart="23.00">
        <route edges="17 43 63 12 6 14"/>
    </vehicle>
    <vehicle id="34" depart="23.67">
        <route edges="19 41 39 12 6 14"/>
    </vehicle>
    <vehicle id="35" depart="24.33">
        <route edges="49 48"/>
    </vehicle>
    <vehicle id="36" depart="25.00">
        <route edges="36 49 50"/>
    </vehicle>
    <vehicle id="37" depart="25.67">
        <route edges="29 28 19 41 39"/>
    </vehicle>
    <vehicle id="38" depart="26.33">
        <route edges="37 3 20 50 22 45 10"/>
    </vehicle>
    <vehicle id="39" depart="27.00">
        <route edges="4 16 19 52 53"/>
    </vehicle>
    <vehicle id="40" depart="27.67">
        <route edges="6 7 13 32 67"/>
    </vehicle>
    <vehicle id="41" depart="28.33">
        <route edges="30 57 22 53 34 29"/>
    </vehicle>
    <vehicle id="42" depart="29.00">
        <route edges="43 63 12 6 58 20 48"/>
    </vehicle>
    <vehicle id="43" depart="29.67">
        <route edges="21 20 50 22 53 34 29 46"/>
    </vehicle>
    <vehicle id="44" depart="30.33">
        <route edges="27 6 58 20 50 22"/>
    </vehicle>
    <vehicle id="45" depart="31.00">
        <route edges="47 28 19 52 23 51 48 37"/>
    </vehicle>
    <vehicle id="46" depart="31.67">
        <route edges="63 12 6"/>
    </vehicle>
    <vehicle id="47" depart="32.33">
        <route edges="71 58 20 50 22"/>
    </vehicle>
    <vehicle id="48" depart="33.00">
        <route edges="30 37 36"/>
    </vehicle>
    <vehicle id="49" depart="33.67">
        <route edges="21 20 50 22 53 41 67"/>
    </vehicle>
    <vehicle id="50" depart="34.33">
        <route edges="21 71 7 13 12"/>
    </vehicle>
    <vehicle id="51" depart="35.00">
        <route edges="22 53 34 29"/>
    </vehicle>
    <vehicle id="52" depart="35.67">
        <route edges="gneE6 27 6 14 3"/>
    </vehicle>
    <vehicle id="53" depart="36.33">
        <route edges="57 22 53 34 19"/>
    </vehicle>
    <vehicle id="54" depart="37.00">
        <route edges="51 21 20"/>
    </vehicle>
    <vehicle id="55" depart="37.67">
        <route edges="6 7 13 32 40 34"/>
    </vehicle>
    <vehicle id="56" depart="38.33">
        <route edges="19 41 39 12 6 14"/>
    </vehicle>
    <vehicle id="57" depart="39.00">
        <route edges="36 57 22 53 34 17"/>
    </vehicle>
    <vehicle id="58" depart="39.67">
        <route edges="32 39 12 6"/>
    </vehicle>
    <vehicle id="59" depart="40.33">
        <route edges="4 5"/>
    </vehicle>
    <vehicle id="60" depart="41.00">
        <route edges="55 64 7 13 62 68 43"/>
    </vehicle>
    <vehicle id="61" depart="41.67">
        <route edges="32 40 34 29"/>
    </vehicle>
    <vehicle id="62" depart="42.33">
        <route edges="21 55 64"/>
    </vehicle>
    <vehicle id="63" depart="43.00">
        <route edges="gneE6 27 6 14 36 57"/>
    </vehicle>
    <vehicle id="64" depart="43.67">
        <route edges="58 20 50 22 53 41"/>
    </vehicle>
    <vehicle id="65" depart="44.33">
        <route edges="-gneE6 13 62"/>
    </vehicle>
    <vehicle id="66" depart="45.00">
        <route edges="52 53 34 17 5"/>
    </vehicle>
    <vehicle id="67" depart="45.67">
        <route edges="23 22 53 41 39 62"/>
    </vehicle>
    <vehicle id="68" depart="46.33">
        <route edges="68 16 19 52 23 22"/>
    </vehicle>
    <vehicle id="69" depart="47.00">
        <route edges="3 20 50 22 53"/>
    </vehicle>
    <vehicle id="70" depart="47.67">
        <route edges="14 64 7 13 12"/>
    </vehicle>
    <vehicle id="71" depart="48.33">
        <route edges="68 43 66 40"/>
    </vehicle>
    <vehicle id="72" depart="49.00">
        <route edges="28 17 43 68"/>
    </vehicle>
    <vehicle id="73" depart="49.67">
        <route edges="40 52 23 51 48"/>
    </vehicle>
    <vehicle id="74" depart="50.33">
        <route edges="16 17 43 66"/>
    </vehicle>
    <vehicle id="75" depart="51.00">
        <route edges="10 53 34 17 43"/>
    </vehicle>
    <vehicle id="76" depart="51.67">
        <route edges="39 12 6 58 71"/>
    </vehicle>
    <vehicle id="77" depart="52.33">
        <route edges="22 53 41"/>
    </vehicle>
    <vehicle id="78" depart="53.00">
        <route edges="32 40 41"/>
    </vehicle>
    <vehicle id="79" depart="53.67">
        <route edges="19 52 23 51 48 49"/>
    </vehicle>
    <vehicle id="80" depart="54.33">
        <route edges="29 28 19 52 23 51 48"/>
    </vehicle>
    <vehicle id="81" depart="55.00">
        <route edges="40 34 29 46"/>
    </vehicle>
    <vehicle id="82" depart="55.67">
        <route edges="36 37 64 14"/>
    </vehicle>
    <vehicle id="83" depart="56.33">
        <route edges="66 67 63"/>
    </vehicle>
    <vehicle id="84" depart="57.00">
        <route edges="17 43 63 62"/>
    </vehicle>
    <vehicle id="85" depart="57.67">
        <route edges="6 7 13"/>
    </vehicle>
    <vehicle id="86" depart="58.33">
        <route edges="39 12 6 58 71"/>
    </vehicle>
    <vehicle id="87" depart="59.00">
        <route edges="71 7 13 62 68 5"/>
    </vehicle>
    <vehicle id="88" depart="59.67">
        <route edges="29 46"/>
    </vehicle>
    <vehicle id="89" depart="60.33">
        <route edges="63 62 66 40 34"/>
    </vehicle>
    <vehicle id="90" depart="61.00">
        <route edges="48 57 22 45 10"/>
    </vehicle>
    <vehicle id="91" depart="61.67">
        <route edges="12 13 62 68 16"/>
    </vehicle>
    <vehicle id="92" depart="62.33">
        <route edges="63 62 66 40 52 23 22"/>
    </vehicle>
    <vehicle id="93" depart="63.00">
        <route edges="39 12 6 58 55"/>
    </vehicle>
    <vehicle id="94" depart="63.67">
        <route edges="29 4 43 63 12 6 7"/>
    </vehicle>
    <vehicle id="95" depart="64.33">
        <route edges="62 68 5"/>
    </vehicle>
    <vehicle id="96" depart="65.00">
        <route edges="71 7 13 62 68 5 28"/>
    </vehicle>
    <vehicle id="97" depart="65.67">
        <route edges="40 52 23 51 21 55 36"/>
    </vehicle>
    <vehicle id="98" depart="66.33">
        <route edges="36 37 64 7 13 62 68"/>
    </vehicle>
    <vehicle id="99" depart="67.00">
        <route edges="53 34 29 4"/>
    </vehicle>
    <vehicle id="100" depart="67.67">
        <route edges="22 23 51 21 55 64"/>
    </vehicle>
    <vehicle id="101" depart="68.33">
        <route edges="68 16 19 52"/>
    </vehicle>
    <vehicle id="102" depart="69.00">
        <route edges="58 71 7 13 62 68 16"/>
    </vehicle>
    <vehicle id="103" depart="69.67">
        <route edges="47 4 43 63"/>
    </vehicle>
    <vehicle id="104" depart="70.33">
        <route edges="60 62 68 5"/>
    </vehicle>
    <vehicle id="105" depart="71.00">
        <route edges="12 13 62 68 16 29"/>
    </vehicle>
    <vehicle id="106" depart="71.67">
        <route edges="48 57 51"/>
    </vehicle>
    <vehicle id="107" depart="72.33">
        <route edges="45 10 23 51 48 49"/>
    </vehicle>
    <vehicle id="108" depart="73.00">
        <route edges="52 53 34 29 4"/>
    </vehicle>
    <vehicle id="109" depart="73.67">
        <route edges="39 62"/>
    </vehicle>
    <vehicle id="110" depart="74.33">
        <route edges="47 28 19"/>
    </vehicle>
    <vehicle id="111" depart="75.00">
        <route edges="62 63 12 6 14 3"/>
    </vehicle>
    <vehicle id="112" depart="75.67">
        <route edges="36 37 64 14"/>
    </vehicle>
    <vehicle id="113" depart="76.33">
        <route edges="gneE6 27 6 58 20 48"/>
    </vehicle>
    <vehicle id="114" depart="77.00">
        <route edges="-gneE6 13 32 40 52 45"/>
    </vehicle>
    <vehicle id="115" depart="77.67">
        <route edges="gneE6 62 66 40 52"/>
    </vehicle>
    <vehicle id="116" depart="78.33">
        <route edges="16 29 28"/>
    </vehicle>
    <vehicle id="117" depart="79.00">
        <route edges="39 12 6 58 20 48"/>
    </vehicle>
    <vehicle id="118" depart="79.67">
        <route edges="62 63 12 6 14 36"/>
    </vehicle>
    <vehicle id="119" depart="80.33">
        <route edges="17 43 63 12 6 7"/>
    </vehicle>
    <vehicle id="120" depart="81.00">
        <route edges="20 50 22 53 41 67"/>
    </vehicle>
    <vehicle id="121" depart="81.67">
        <route edges="41 39 27"/>
    </vehicle>
    <vehicle id="122" depart="82.33">
        <route edges="14 64 7 13 62 68 5 46"/>
    </vehicle>
    <vehicle id="123" depart="83.00">
        <route edges="37 64 7 6"/>
    </vehicle>
    <vehicle id="124" depart="83.67">
        <route edges="53 34 17 5"/>
    </vehicle>
    <vehicle id="125" depart="84.33">
        <route edges="27 13 12"/>
    </vehicle>
    <vehicle id="126" depart="85.00">
        <route edges="27 6 58"/>
    </vehicle>
    <vehicle id="127" depart="85.67">
        <route edges="29 28 19 52 23 51 48 49"/>
    </vehicle>
    <vehicle id="128" depart="86.33">
        <route edges="27 6 14 36"/>
    </vehicle>
    <vehicle id="129" depart="87.00">
        <route edges="14 3 20 50 22 45"/>
    </vehicle>
    <vehicle id="130" depart="87.67">
        <route edges="67 63 12 6 14 3"/>
    </vehicle>
    <vehicle id="131" depart="88.33">
        <route edges="36 37 3 55"/>
    </vehicle>
    <vehicle id="132" depart="89.00">
        <route edges="53 41 39"/>
    </vehicle>
    <vehicle id="133" depart="89.67">
        <route edges="5 28 29"/>
    </vehicle>
    <vehicle id="134" depart="90.33">
        <route edges="16 17 43 63 62"/>
    </vehicle>
    <vehicle id="135" depart="91.00">
        <route edges="46 47 4"/>
    </vehicle>
    <vehicle id="136" depart="91.67">
        <route edges="51 50 22 53 41"/>
    </vehicle>
    <vehicle id="137" depart="92.33">
        <route edges="23 51 21 71 14"/>
    </vehicle>
    <vehicle id="138" depart="93.00">
        <route edges="7 gneE6"/>
    </vehicle>
    <vehicle id="139" depart="93.67">
        <route edges="47 28 19 52 23 51 21 71"/>
    </vehicle>
    <vehicle id="140" depart="94.33">
        <route edges="58 55 3"/>
    </vehicle>
    <vehicle id="141" depart="95.00">
        <route edges="12 6 58 20 50 51"/>
    </vehicle>
    <vehicle id="142" depart="95.67">
        <route edges="63 12 6 14 36 37"/>
    </vehicle>
    <vehicle id="143" depart="96.33">
        <route edges="62 66 67"/>
    </vehicle>
    <vehicle id="144" depart="97.00">
        <route edges="19 41 39 12 gneE6"/>
    </vehicle>
    <vehicle id="145" depart="97.67">
        <route edges="21 20 50 22 53"/>
    </vehicle>
    <vehicle id="146" depart="98.33">
        <route edges="16 29 28"/>
    </vehicle>
    <vehicle id="147" depart="99.00">
        <route edges="60 27 gneE6"/>
    </vehicle>
    <vehicle id="148" depart="99.67">
        <route edges="40 34 29 4"/>
    </vehicle>
    <vehicle id="149" depart="100.33">
        <route edges="36 57 22 23"/>
    </vehicle>
</routes>
