<?xml version="1.0" encoding="UTF-8"?>

<!-- generated on 05/18/19 20:18:10 by Eclipse SUMO duarouter Version 1.1.0
<configuration xmlns:xsi="http://www.w3.org/2001/XMLSchema-instance" xsi:noNamespaceSchemaLocation="http://sumo.dlr.de/xsd/duarouterConfiguration.xsd">

    <input>
        <net-file value="net.net.xml"/>
        <route-files value="trips.trips.xml"/>
    </input>

    <output>
        <output-file value="output/./rou475.rou.xml"/>
        <alternatives-output value="output/./rou475.rou.alt.xml"/>
    </output>

    <time>
        <begin value="1.0"/>
        <end value="101.0"/>
    </time>

    <report>
        <no-warnings value="true"/>
        <ignore-errors value="true"/>
        <no-step-log value="true"/>
    </report>

</configuration>
-->

<routes xmlns:xsi="http://www.w3.org/2001/XMLSchema-instance" xsi:noNamespaceSchemaLocation="http://sumo.dlr.de/xsd/routes_file.xsd">
    <vehicle id="0" depart="1.00">
        <route edges="66 40 34 17"/>
    </vehicle>
    <vehicle id="1" depart="1.21">
        <route edges="12 13 32 40 34"/>
    </vehicle>
    <vehicle id="2" depart="1.42">
        <route edges="57 51 21 71 7 6"/>
    </vehicle>
    <vehicle id="3" depart="1.63">
        <route edges="22 53 41 39 12 6"/>
    </vehicle>
    <vehicle id="4" depart="1.84">
        <route edges="64 58 20 50"/>
    </vehicle>
    <vehicle id="5" depart="2.05">
        <route edges="55 64 7 13 32 39"/>
    </vehicle>
    <vehicle id="6" depart="2.26">
        <route edges="50 51 21 71 7 6"/>
    </vehicle>
    <vehicle id="7" depart="2.47">
        <route edges="71 7 13 62 68 16"/>
    </vehicle>
    <vehicle id="8" depart="2.68">
        <route edges="4 43 63 12 6 14"/>
    </vehicle>
    <vehicle id="9" depart="2.89">
        <route edges="5 4 43 63 32"/>
    </vehicle>
    <vehicle id="10" depart="3.11">
        <route edges="7 13 62 68 5"/>
    </vehicle>
    <vehicle id="11" depart="3.32">
        <route edges="17 5 28"/>
    </vehicle>
    <vehicle id="12" depart="3.53">
        <route edges="19 34 17 43"/>
    </vehicle>
    <vehicle id="13" depart="3.74">
        <route edges="51 21"/>
    </vehicle>
    <vehicle id="14" depart="3.95">
        <route edges="7 6 58 20 48"/>
    </vehicle>
    <vehicle id="15" depart="4.16">
        <route edges="4 16 29"/>
    </vehicle>
    <vehicle id="16" depart="4.37">
        <route edges="37 3 20 48"/>
    </vehicle>
    <vehicle id="17" depart="4.58">
        <route edges="52 53 34 17"/>
    </vehicle>
    <vehicle id="18" depart="4.79">
        <route edges="62 66 40 52 23 51"/>
    </vehicle>
    <vehicle id="19" depart="5.00">
        <route edges="21 71 7"/>
    </vehicle>
    <vehicle id="20" depart="5.21">
        <route edges="47 4 43 63 12 6 14 36"/>
    </vehicle>
    <vehicle id="21" depart="5.42">
        <route edges="51 50 30"/>
    </vehicle>
    <vehicle id="22" depart="5.63">
        <route edges="36 37 3 20"/>
    </vehicle>
    <vehicle id="23" depart="5.84">
        <route edges="30 37 64 7 13 27"/>
    </vehicle>
    <vehicle id="24" depart="6.05">
        <route edges="36 37 64 7 60"/>
    </vehicle>
    <vehicle id="25" depart="6.26">
        <route edges="43 63 12 6 14 3"/>
    </vehicle>
    <vehicle id="26" depart="6.47">
        <route edges="43 63 12 6 14 64"/>
    </vehicle>
    <vehicle id="27" depart="6.68">
        <route edges="29 28 19 52 23 51 21 71"/>
    </vehicle>
    <vehicle id="28" depart="6.89">
        <route edges="34 19 52 23 51"/>
    </vehicle>
    <vehicle id="29" depart="7.11">
        <route edges="16 17"/>
    </vehicle>
    <vehicle id="30" depart="7.32">
        <route edges="6 58 20 50"/>
    </vehicle>
    <vehicle id="31" depart="7.53">
        <route edges="71 7 13 62 68 5 46 47"/>
    </vehicle>
    <vehicle id="32" depart="7.74">
        <route edges="62 68 43"/>
    </vehicle>
    <vehicle id="33" depart="7.95">
        <route edges="62 68 5 46"/>
    </vehicle>
    <vehicle id="34" depart="8.16">
        <route edges="6 58"/>
    </vehicle>
    <vehicle id="35" depart="8.37">
        <route edges="47 4 43 63 -gneE6"/>
    </vehicle>
    <vehicle id="36" depart="8.58">
        <route edges="66 39 12 6 14 64"/>
    </vehicle>
    <vehicle id="37" depart="8.79">
        <route edges="12 13 62 68"/>
    </vehicle>
    <vehicle id="38" depart="9.00">
        <route edges="60 62 68"/>
    </vehicle>
    <vehicle id="39" depart="9.21">
        <route edges="52 53 41 67 66"/>
    </vehicle>
    <vehicle id="40" depart="9.42">
        <route edges="43 68 16"/>
    </vehicle>
    <vehicle id="41" depart="9.63">
        <route edges="27 6"/>
    </vehicle>
    <vehicle id="42" depart="9.84">
        <route edges="5 28 19 41 67"/>
    </vehicle>
    <vehicle id="43" depart="10.05">
        <route edges="62 63 12 6 58 20 48"/>
    </vehicle>
    <vehicle id="44" depart="10.26">
        <route edges="30 37 64 7 13"/>
    </vehicle>
    <vehicle id="45" depart="10.47">
        <route edges="52 53 41 67"/>
    </vehicle>
    <vehicle id="46" depart="10.68">
        <route edges="30 57 51"/>
    </vehicle>
    <vehicle id="47" depart="10.89">
        <route edges="-gneE6 6 7"/>
    </vehicle>
    <vehicle id="48" depart="11.11">
        <route edges="36 37 64 7 13"/>
    </vehicle>
    <vehicle id="49" depart="11.32">
        <route edges="7 6 14 36 37"/>
    </vehicle>
    <vehicle id="50" depart="11.53">
        <route edges="22 23 51 21"/>
    </vehicle>
    <vehicle id="51" depart="11.74">
        <route edges="48 57 51"/>
    </vehicle>
    <vehicle id="52" depart="11.95">
        <route edges="41 39 32"/>
    </vehicle>
    <vehicle id="53" depart="12.16">
        <route edges="28 17 43 66"/>
    </vehicle>
    <vehicle id="54" depart="12.37">
        <route edges="16 17 43 63 12 6 14"/>
    </vehicle>
    <vehicle id="55" depart="12.58">
        <route edges="10 53 41 39 12 13"/>
    </vehicle>
    <vehicle id="56" depart="12.79">
        <route edges="53 34 29 28"/>
    </vehicle>
    <vehicle id="57" depart="13.00">
        <route edges="66 40 34 29 46 47"/>
    </vehicle>
    <vehicle id="58" depart="13.21">
        <route edges="7 13 32 40 52 45 10"/>
    </vehicle>
    <vehicle id="59" depart="13.42">
        <route edges="48 57 22 53 34"/>
    </vehicle>
    <vehicle id="60" depart="13.63">
        <route edges="41 39 12 60"/>
    </vehicle>
    <vehicle id="61" depart="13.84">
        <route edges="28 19 52 23 30"/>
    </vehicle>
    <vehicle id="62" depart="14.05">
        <route edges="27 13 62 68"/>
    </vehicle>
    <vehicle id="63" depart="14.26">
        <route edges="10 23 51 21 55 36"/>
    </vehicle>
    <vehicle id="64" depart="14.47">
        <route edges="49 50 22 53 34 17 16"/>
    </vehicle>
    <vehicle id="65" depart="14.68">
        <route edges="57 22 53 34 29 46 47"/>
    </vehicle>
    <vehicle id="66" depart="14.89">
        <route edges="40 34 29 46"/>
    </vehicle>
    <vehicle id="67" depart="15.11">
        <route edges="30 57 51"/>
    </vehicle>
    <vehicle id="68" depart="15.32">
        <route edges="34 19 52 23 22"/>
    </vehicle>
    <vehicle id="69" depart="15.53">
        <route edges="17 43 63 12 13"/>
    </vehicle>
    <vehicle id="70" depart="15.74">
        <route edges="gneE6 27 6 58 20 50"/>
    </vehicle>
    <vehicle id="71" depart="15.95">
        <route edges="4 43 68"/>
    </vehicle>
    <vehicle id="72" depart="16.16">
        <route edges="40 34 29"/>
    </vehicle>
    <vehicle id="73" depart="16.37">
        <route edges="64 7 13 62 68 16"/>
    </vehicle>
    <vehicle id="74" depart="16.58">
        <route edges="23 22 53 41 67 66"/>
    </vehicle>
    <vehicle id="75" depart="16.79">
        <route edges="16 17 43 63 12 6 58"/>
    </vehicle>
    <vehicle id="76" depart="17.00">
        <route edges="14 3"/>
    </vehicle>
    <vehicle id="77" depart="17.21">
        <route edges="-gneE6 13 32 40"/>
    </vehicle>
    <vehicle id="78" depart="17.42">
        <route edges="67 68 16 19"/>
    </vehicle>
    <vehicle id="79" depart="17.63">
        <route edges="50 22 53 41 39"/>
    </vehicle>
    <vehicle id="80" depart="17.84">
        <route edges="57 22 53 34 17"/>
    </vehicle>
    <vehicle id="81" depart="18.05">
        <route edges="3 20 50"/>
    </vehicle>
    <vehicle id="82" depart="18.26">
        <route edges="14"/>
    </vehicle>
    <vehicle id="83" depart="18.47">
        <route edges="53 34 29 4"/>
    </vehicle>
    <vehicle id="84" depart="18.68">
        <route edges="53 52 23 51 21 55 36"/>
    </vehicle>
    <vehicle id="85" depart="18.89">
        <route edges="22 53 41 39 62"/>
    </vehicle>
    <vehicle id="86" depart="19.11">
        <route edges="16 17 5"/>
    </vehicle>
    <vehicle id="87" depart="19.32">
        <route edges="32 40 52 23 51 48 37"/>
    </vehicle>
    <vehicle id="88" depart="19.53">
        <route edges="45 10 53 41 39 12"/>
    </vehicle>
    <vehicle id="89" depart="19.74">
        <route edges="48 37 64 7 13 62 68 43"/>
    </vehicle>
    <vehicle id="90" depart="19.95">
        <route edges="52 53 34"/>
    </vehicle>
    <vehicle id="91" depart="20.16">
        <route edges="60 62"/>
    </vehicle>
    <vehicle id="92" depart="20.37">
        <route edges="57 22 53 41 39 -gneE6"/>
    </vehicle>
    <vehicle id="93" depart="20.58">
        <route edges="60 62 68 5 46"/>
    </vehicle>
    <vehicle id="94" depart="20.79">
        <route edges="40 52 23 22"/>
    </vehicle>
    <vehicle id="95" depart="21.00">
        <route edges="40 41 67 68"/>
    </vehicle>
    <vehicle id="96" depart="21.21">
        <route edges="57 22 53 41"/>
    </vehicle>
    <vehicle id="97" depart="21.42">
        <route edges="12 13 32 40 52 23"/>
    </vehicle>
    <vehicle id="98" depart="21.63">
        <route edges="32 40 52 53"/>
    </vehicle>
    <vehicle id="99" depart="21.84">
        <route edges="40 52 45"/>
    </vehicle>
    <vehicle id="100" depart="22.05">
        <route edges="43 66 67"/>
    </vehicle>
    <vehicle id="101" depart="22.26">
        <route edges="16 19 41 39"/>
    </vehicle>
    <vehicle id="102" depart="22.47">
        <route edges="17 43 63 12 gneE6"/>
    </vehicle>
    <vehicle id="103" depart="22.68">
        <route edges="-gneE6 6 14 36 49"/>
    </vehicle>
    <vehicle id="104" depart="22.89">
        <route edges="64 7 13 62 68 16 17"/>
    </vehicle>
    <vehicle id="105" depart="23.11">
        <route edges="gneE6 62 68 5 28"/>
    </vehicle>
    <vehicle id="106" depart="23.32">
        <route edges="50 22 53 34 29"/>
    </vehicle>
    <vehicle id="107" depart="23.53">
        <route edges="67 63 12 6 7"/>
    </vehicle>
    <vehicle id="108" depart="23.74">
        <route edges="-gneE6 13 62 68 16"/>
    </vehicle>
    <vehicle id="109" depart="23.95">
        <route edges="58 71 7 60"/>
    </vehicle>
    <vehicle id="110" depart="24.16">
        <route edges="32 40 52 23"/>
    </vehicle>
    <vehicle id="111" depart="24.37">
        <route edges="47 4 43 68"/>
    </vehicle>
    <vehicle id="112" depart="24.58">
        <route edges="28 17 43 63 12 6 14 36"/>
    </vehicle>
    <vehicle id="113" depart="24.79">
        <route edges="17 43 63 32"/>
    </vehicle>
    <vehicle id="114" depart="25.00">
        <route edges="40 34 29"/>
    </vehicle>
    <vehicle id="115" depart="25.21">
        <route edges="46 47 4 43 63"/>
    </vehicle>
    <vehicle id="116" depart="25.42">
        <route edges="51 50 22 53 34 17"/>
    </vehicle>
    <vehicle id="117" depart="25.63">
        <route edges="-gneE6 6 7"/>
    </vehicle>
    <vehicle id="118" depart="25.84">
        <route edges="27 13 12"/>
    </vehicle>
    <vehicle id="119" depart="26.05">
        <route edges="28 19 52 23 22"/>
    </vehicle>
    <vehicle id="120" depart="26.26">
        <route edges="14 3 20 48"/>
    </vehicle>
    <vehicle id="121" depart="26.47">
        <route edges="22 53 41 67"/>
    </vehicle>
    <vehicle id="122" depart="26.68">
        <route edges="45 10 53 41 39 12"/>
    </vehicle>
    <vehicle id="123" depart="26.89">
        <route edges="71 58 55"/>
    </vehicle>
    <vehicle id="124" depart="27.11">
        <route edges="23 22 53 41 67 63"/>
    </vehicle>
    <vehicle id="125" depart="27.32">
        <route edges="40 34 29"/>
    </vehicle>
    <vehicle id="126" depart="27.53">
        <route edges="51 21 55 64"/>
    </vehicle>
    <vehicle id="127" depart="27.74">
        <route edges="51 50 22 53 41 67 63"/>
    </vehicle>
    <vehicle id="128" depart="27.95">
        <route edges="46 47 28 19 52 23 51 48 49"/>
    </vehicle>
    <vehicle id="129" depart="28.16">
        <route edges="32 40 41"/>
    </vehicle>
    <vehicle id="130" depart="28.37">
        <route edges="19 41 39 12 6 14"/>
    </vehicle>
    <vehicle id="131" depart="28.58">
        <route edges="46 47 28 19 52 23 51 48 57"/>
    </vehicle>
    <vehicle id="132" depart="28.79">
        <route edges="71 14 3"/>
    </vehicle>
    <vehicle id="133" depart="29.00">
        <route edges="57 22 53 34 29 28"/>
    </vehicle>
    <vehicle id="134" depart="29.21">
        <route edges="-gneE6 13 32 40 52 53"/>
    </vehicle>
    <vehicle id="135" depart="29.42">
        <route edges="19 41"/>
    </vehicle>
    <vehicle id="136" depart="29.63">
        <route edges="60 27 6 58 71"/>
    </vehicle>
    <vehicle id="137" depart="29.84">
        <route edges="17 16 19 52 45 10"/>
    </vehicle>
    <vehicle id="138" depart="30.05">
        <route edges="12 6 58 55"/>
    </vehicle>
    <vehicle id="139" depart="30.26">
        <route edges="19 41"/>
    </vehicle>
    <vehicle id="140" depart="30.47">
        <route edges="68 16 29"/>
    </vehicle>
    <vehicle id="141" depart="30.68">
        <route edges="57 51 21 71 7 6"/>
    </vehicle>
    <vehicle id="142" depart="30.89">
        <route edges="53 41 40"/>
    </vehicle>
    <vehicle id="143" depart="31.11">
        <route edges="43 68 5 46"/>
    </vehicle>
    <vehicle id="144" depart="31.32">
        <route edges="55 64 14"/>
    </vehicle>
    <vehicle id="145" depart="31.53">
        <route edges="49 50 51"/>
    </vehicle>
    <vehicle id="146" depart="31.74">
        <route edges="14 64 7 13 62 68 16 17"/>
    </vehicle>
    <vehicle id="147" depart="31.95">
        <route edges="32 67 68 16"/>
    </vehicle>
    <vehicle id="148" depart="32.16">
        <route edges="62 68 5 4"/>
    </vehicle>
    <vehicle id="149" depart="32.37">
        <route edges="14 3 71"/>
    </vehicle>
    <vehicle id="150" depart="32.58">
        <route edges="27 gneE6"/>
    </vehicle>
    <vehicle id="151" depart="32.79">
        <route edges="28 19 52 23 51"/>
    </vehicle>
    <vehicle id="152" depart="33.00">
        <route edges="-gneE6 13 62 68 16 17"/>
    </vehicle>
    <vehicle id="153" depart="33.21">
        <route edges="57 22 53 41 39 32"/>
    </vehicle>
    <vehicle id="154" depart="33.42">
        <route edges="17 16 19 52 23 51 48"/>
    </vehicle>
    <vehicle id="155" depart="33.63">
        <route edges="30 57 22 53"/>
    </vehicle>
    <vehicle id="156" depart="33.84">
        <route edges="20 50 22 53 34 17"/>
    </vehicle>
    <vehicle id="157" depart="34.05">
        <route edges="14 36 37"/>
    </vehicle>
    <vehicle id="158" depart="34.26">
        <route edges="60 27 6 58 71"/>
    </vehicle>
    <vehicle id="159" depart="34.47">
        <route edges="gneE6 62 66 67"/>
    </vehicle>
    <vehicle id="160" depart="34.68">
        <route edges="57 22 53 34 19"/>
    </vehicle>
    <vehicle id="161" depart="34.89">
        <route edges="50 51 21 71 7 6"/>
    </vehicle>
    <vehicle id="162" depart="35.11">
        <route edges="47 4"/>
    </vehicle>
    <vehicle id="163" depart="35.32">
        <route edges="41 39 62"/>
    </vehicle>
    <vehicle id="164" depart="35.53">
        <route edges="66 40 52 23 51 21 20"/>
    </vehicle>
    <vehicle id="165" depart="35.74">
        <route edges="67 66 40 52 23"/>
    </vehicle>
    <vehicle id="166" depart="35.95">
        <route edges="19 34 17 43"/>
    </vehicle>
    <vehicle id="167" depart="36.16">
        <route edges="22 23 51 48 37"/>
    </vehicle>
    <vehicle id="168" depart="36.37">
        <route edges="58 71 7"/>
    </vehicle>
    <vehicle id="169" depart="36.58">
        <route edges="51 50 22"/>
    </vehicle>
    <vehicle id="170" depart="36.79">
        <route edges="28 19 52 23 51 48"/>
    </vehicle>
    <vehicle id="171" depart="37.00">
        <route edges="34 17 43 63 27"/>
    </vehicle>
    <vehicle id="172" depart="37.21">
        <route edges="64 7 13 32 40"/>
    </vehicle>
    <vehicle id="173" depart="37.42">
        <route edges="43 66 40 41"/>
    </vehicle>
    <vehicle id="174" depart="37.63">
        <route edges="36 37 64 7 13 27"/>
    </vehicle>
    <vehicle id="175" depart="37.84">
        <route edges="20 50 22 53"/>
    </vehicle>
    <vehicle id="176" depart="38.05">
        <route edges="10 53 34 29 46 47"/>
    </vehicle>
    <vehicle id="177" depart="38.26">
        <route edges="6 14 36"/>
    </vehicle>
    <vehicle id="178" depart="38.47">
        <route edges="5 4 43 63 12 13"/>
    </vehicle>
    <vehicle id="179" depart="38.68">
        <route edges="46 47 28 19 52 53"/>
    </vehicle>
    <vehicle id="180" depart="38.89">
        <route edges="19 52 23 51 21 20"/>
    </vehicle>
    <vehicle id="181" depart="39.11">
        <route edges="52 53 34 17 43"/>
    </vehicle>
    <vehicle id="182" depart="39.32">
        <route edges="46 47 4 43 63 12 60"/>
    </vehicle>
    <vehicle id="183" depart="39.53">
        <route edges="19 41 39 12 6"/>
    </vehicle>
    <vehicle id="184" depart="39.74">
        <route edges="52 53 34 17 16"/>
    </vehicle>
    <vehicle id="185" depart="39.95">
        <route edges="55 64 7 60"/>
    </vehicle>
    <vehicle id="186" depart="40.16">
        <route edges="48 37 64 7 6"/>
    </vehicle>
    <vehicle id="187" depart="40.37">
        <route edges="45 10 53 41 39 12 6"/>
    </vehicle>
    <vehicle id="188" depart="40.58">
        <route edges="32 39 12 6 7"/>
    </vehicle>
    <vehicle id="189" depart="40.79">
        <route edges="62 63 12 6 14 36 57"/>
    </vehicle>
    <vehicle id="190" depart="41.00">
        <route edges="27 6 58 55"/>
    </vehicle>
    <vehicle id="191" depart="41.21">
        <route edges="37 64 58"/>
    </vehicle>
    <vehicle id="192" depart="41.42">
        <route edges="16 17 43 63 12 6 14 64"/>
    </vehicle>
    <vehicle id="193" depart="41.63">
        <route edges="10 53 41 39 -gneE6"/>
    </vehicle>
    <vehicle id="194" depart="41.84">
        <route edges="50 22 53 34 29 46"/>
    </vehicle>
    <vehicle id="195" depart="42.05">
        <route edges="10 23 51 21 55 3"/>
    </vehicle>
    <vehicle id="196" depart="42.26">
        <route edges="66 39 12"/>
    </vehicle>
    <vehicle id="197" depart="42.47">
        <route edges="68 16 19 41"/>
    </vehicle>
    <vehicle id="198" depart="42.68">
        <route edges="43 63 12 6 58"/>
    </vehicle>
    <vehicle id="199" depart="42.89">
        <route edges="19 52 23 51 48 49"/>
    </vehicle>
    <vehicle id="200" depart="43.11">
        <route edges="58 20 50 22 53 52"/>
    </vehicle>
    <vehicle id="201" depart="43.32">
        <route edges="67 68 16 29"/>
    </vehicle>
    <vehicle id="202" depart="43.53">
        <route edges="47 4 43 63 12 gneE6"/>
    </vehicle>
    <vehicle id="203" depart="43.74">
        <route edges="67 63 12 6 58"/>
    </vehicle>
    <vehicle id="204" depart="43.95">
        <route edges="32 40 52 23 51 48 57"/>
    </vehicle>
    <vehicle id="205" depart="44.16">
        <route edges="14 3 71"/>
    </vehicle>
    <vehicle id="206" depart="44.37">
        <route edges="27 13 62 68 5"/>
    </vehicle>
    <vehicle id="207" depart="44.58">
        <route edges="34 29 28"/>
    </vehicle>
    <vehicle id="208" depart="44.79">
        <route edges="68 43 63 12 6 14 36 49"/>
    </vehicle>
    <vehicle id="209" depart="45.00">
        <route edges="45 10 53 41 67 68"/>
    </vehicle>
    <vehicle id="210" depart="45.21">
        <route edges="39 32 40 52 23"/>
    </vehicle>
    <vehicle id="211" depart="45.42">
        <route edges="36 57 22 53 52"/>
    </vehicle>
    <vehicle id="212" depart="45.63">
        <route edges="53 52 23 51 21"/>
    </vehicle>
    <vehicle id="213" depart="45.84">
        <route edges="6 7 13 27"/>
    </vehicle>
    <vehicle id="214" depart="46.05">
        <route edges="52 23 51 21 71 58"/>
    </vehicle>
    <vehicle id="215" depart="46.26">
        <route edges="gneE6 27 6"/>
    </vehicle>
    <vehicle id="216" depart="46.47">
        <route edges="13 32 40 52 45 10"/>
    </vehicle>
    <vehicle id="217" depart="46.68">
        <route edges="67 66"/>
    </vehicle>
    <vehicle id="218" depart="46.89">
        <route edges="50 22 53 34 17 43"/>
    </vehicle>
    <vehicle id="219" depart="47.11">
        <route edges="6 7 13"/>
    </vehicle>
    <vehicle id="220" depart="47.32">
        <route edges="53 34 29 46 47"/>
    </vehicle>
    <vehicle id="221" depart="47.53">
        <route edges="41 40 52"/>
    </vehicle>
    <vehicle id="222" depart="47.74">
        <route edges="3 71 7 13 32"/>
    </vehicle>
    <vehicle id="223" depart="47.95">
        <route edges="4 16 17"/>
    </vehicle>
    <vehicle id="224" depart="48.16">
        <route edges="64 7 13 32 40 34"/>
    </vehicle>
    <vehicle id="225" depart="48.37">
        <route edges="47 4 43 63 32"/>
    </vehicle>
    <vehicle id="226" depart="48.58">
        <route edges="62 68 5 4"/>
    </vehicle>
    <vehicle id="227" depart="48.79">
        <route edges="60 62 66 40 52 53"/>
    </vehicle>
    <vehicle id="228" depart="49.00">
        <route edges="12 13 62 68 5 4"/>
    </vehicle>
    <vehicle id="229" depart="49.21">
        <route edges="71 7 13 62 68 5 46"/>
    </vehicle>
    <vehicle id="230" depart="49.42">
        <route edges="34 17 43 63 -gneE6"/>
    </vehicle>
    <vehicle id="231" depart="49.63">
        <route edges="49 50 51"/>
    </vehicle>
    <vehicle id="232" depart="49.84">
        <route edges="20 50 51"/>
    </vehicle>
    <vehicle id="233" depart="50.05">
        <route edges="66 39 12 6 7"/>
    </vehicle>
    <vehicle id="234" depart="50.26">
        <route edges="63 62 68 16 17"/>
    </vehicle>
    <vehicle id="235" depart="50.47">
        <route edges="32 67 66"/>
    </vehicle>
    <vehicle id="236" depart="50.68">
        <route edges="51 21 55 3"/>
    </vehicle>
    <vehicle id="237" depart="50.89">
        <route edges="58"/>
    </vehicle>
    <vehicle id="238" depart="51.11">
        <route edges="45 10 53 41 67 63"/>
    </vehicle>
    <vehicle id="239" depart="51.32">
        <route edges="21 71 14"/>
    </vehicle>
    <vehicle id="240" depart="51.53">
        <route edges="3 20"/>
    </vehicle>
    <vehicle id="241" depart="51.74">
        <route edges="16 29 28"/>
    </vehicle>
    <vehicle id="242" depart="51.95">
        <route edges="21 71 7 gneE6"/>
    </vehicle>
    <vehicle id="243" depart="52.16">
        <route edges="14 64 7 13 62 68 16"/>
    </vehicle>
    <vehicle id="244" depart="52.37">
        <route edges="50 22 53 34 29"/>
    </vehicle>
    <vehicle id="245" depart="52.58">
        <route edges="55 3 20 50 22 53"/>
    </vehicle>
    <vehicle id="246" depart="52.79">
        <route edges="62 68 5 46"/>
    </vehicle>
    <vehicle id="247" depart="53.00">
        <route edges="47 28 19 52"/>
    </vehicle>
    <vehicle id="248" depart="53.21">
        <route edges="13 62 68 16"/>
    </vehicle>
    <vehicle id="249" depart="53.42">
        <route edges="52 23 51 48 37"/>
    </vehicle>
    <vehicle id="250" depart="53.63">
        <route edges="41 40 52 23 30"/>
    </vehicle>
    <vehicle id="251" depart="53.84">
        <route edges="29 28 19 52 45 10"/>
    </vehicle>
    <vehicle id="252" depart="54.05">
        <route edges="36 37 64 7 13 -gneE6"/>
    </vehicle>
    <vehicle id="253" depart="54.26">
        <route edges="46 47 4 43"/>
    </vehicle>
    <vehicle id="254" depart="54.47">
        <route edges="13 62 68 5 46"/>
    </vehicle>
    <vehicle id="255" depart="54.68">
        <route edges="53 34 17 5"/>
    </vehicle>
    <vehicle id="256" depart="54.89">
        <route edges="22 23 51 21 71 58"/>
    </vehicle>
    <vehicle id="257" depart="55.11">
        <route edges="57 22 53 41 39"/>
    </vehicle>
    <vehicle id="258" depart="55.32">
        <route edges="32 40 52 23 51 48 49"/>
    </vehicle>
    <vehicle id="259" depart="55.53">
        <route edges="27 13 62 68 5 46 47"/>
    </vehicle>
    <vehicle id="260" depart="55.74">
        <route edges="40 34 17 5"/>
    </vehicle>
    <vehicle id="261" depart="55.95">
        <route edges="13 27 6 14 36 49"/>
    </vehicle>
    <vehicle id="262" depart="56.16">
        <route edges="23 22 45"/>
    </vehicle>
    <vehicle id="263" depart="56.37">
        <route edges="34 19 52 23 51 48 37"/>
    </vehicle>
    <vehicle id="264" depart="56.58">
        <route edges="51 50 22 53 34 29"/>
    </vehicle>
    <vehicle id="265" depart="56.79">
        <route edges="51 50 22 53 34 19"/>
    </vehicle>
    <vehicle id="266" depart="57.00">
        <route edges="52 23 51 21 71"/>
    </vehicle>
    <vehicle id="267" depart="57.21">
        <route edges="23 22 53 34 17 16"/>
    </vehicle>
    <vehicle id="268" depart="57.42">
        <route edges="10 53 34 29 46 47"/>
    </vehicle>
    <vehicle id="269" depart="57.63">
        <route edges="52 23 51 21 20"/>
    </vehicle>
    <vehicle id="270" depart="57.84">
        <route edges="45 10 23 51 48 49"/>
    </vehicle>
    <vehicle id="271" depart="58.05">
        <route edges="32 40 34 17"/>
    </vehicle>
    <vehicle id="272" depart="58.26">
        <route edges="43 63 12 6 58"/>
    </vehicle>
    <vehicle id="273" depart="58.47">
        <route edges="51 50 22 53 52"/>
    </vehicle>
    <vehicle id="274" depart="58.68">
        <route edges="41 40 52 23 51 48"/>
    </vehicle>
    <vehicle id="275" depart="58.89">
        <route edges="28 17 43 63 12 gneE6"/>
    </vehicle>
    <vehicle id="276" depart="59.11">
        <route edges="50 22 53 41 40"/>
    </vehicle>
    <vehicle id="277" depart="59.32">
        <route edges="46 47 4 43 63 12 6 58"/>
    </vehicle>
    <vehicle id="278" depart="59.53">
        <route edges="28 19 52 53"/>
    </vehicle>
    <vehicle id="279" depart="59.74">
        <route edges="23 22 53 41 67 63"/>
    </vehicle>
    <vehicle id="280" depart="59.95">
        <route edges="14 36"/>
    </vehicle>
    <vehicle id="281" depart="60.16">
        <route edges="14 36 37"/>
    </vehicle>
    <vehicle id="282" depart="60.37">
        <route edges="19 34 17 5"/>
    </vehicle>
    <vehicle id="283" depart="60.58">
        <route edges="53 41 39 12 gneE6"/>
    </vehicle>
    <vehicle id="284" depart="60.79">
        <route edges="13 32 40 52 23 30"/>
    </vehicle>
    <vehicle id="285" depart="61.00">
        <route edges="40 41 67 68"/>
    </vehicle>
    <vehicle id="286" depart="61.21">
        <route edges="51 50 22 45"/>
    </vehicle>
    <vehicle id="287" depart="61.42">
        <route edges="43 63 12 6 14"/>
    </vehicle>
    <vehicle id="288" depart="61.63">
        <route edges="32 40 52 23 51 48 57"/>
    </vehicle>
    <vehicle id="289" depart="61.84">
        <route edges="-gneE6 6 58 20 50"/>
    </vehicle>
    <vehicle id="290" depart="62.05">
        <route edges="22 23 51 21 55 64"/>
    </vehicle>
    <vehicle id="291" depart="62.26">
        <route edges="68 43 63 12 6 14 36 57"/>
    </vehicle>
    <vehicle id="292" depart="62.47">
        <route edges="52 23 51 48 57"/>
    </vehicle>
    <vehicle id="293" depart="62.68">
        <route edges="10 53 41 67"/>
    </vehicle>
    <vehicle id="294" depart="62.89">
        <route edges="52 23 30"/>
    </vehicle>
    <vehicle id="295" depart="63.11">
        <route edges="68 43 63 12 6 14 36"/>
    </vehicle>
    <vehicle id="296" depart="63.32">
        <route edges="46 47 4 5"/>
    </vehicle>
    <vehicle id="297" depart="63.53">
        <route edges="21 71 7 13 62 68 5"/>
    </vehicle>
    <vehicle id="298" depart="63.74">
        <route edges="3 20"/>
    </vehicle>
    <vehicle id="299" depart="63.95">
        <route edges="4 5 46"/>
    </vehicle>
    <vehicle id="300" depart="64.16">
        <route edges="36 57 22 53 34 29"/>
    </vehicle>
    <vehicle id="301" depart="64.37">
        <route edges="27"/>
    </vehicle>
    <vehicle id="302" depart="64.58">
        <route edges="62 63"/>
    </vehicle>
    <vehicle id="303" depart="64.79">
        <route edges="68 43 63 -gneE6"/>
    </vehicle>
    <vehicle id="304" depart="65.00">
        <route edges="60 27 6 58"/>
    </vehicle>
    <vehicle id="305" depart="65.21">
        <route edges="57 22 53 34 17 16"/>
    </vehicle>
    <vehicle id="306" depart="65.42">
        <route edges="13 27 6 58 20"/>
    </vehicle>
    <vehicle id="307" depart="65.63">
        <route edges="51 50 22 53 41 67 63"/>
    </vehicle>
    <vehicle id="308" depart="65.84">
        <route edges="14 64 7 13 62 66"/>
    </vehicle>
    <vehicle id="309" depart="66.05">
        <route edges="16 17 43 63"/>
    </vehicle>
    <vehicle id="310" depart="66.26">
        <route edges="48 57 22 45 10"/>
    </vehicle>
    <vehicle id="311" depart="66.47">
        <route edges="29 4 43 63 27"/>
    </vehicle>
    <vehicle id="312" depart="66.68">
        <route edges="10 53 41 39 12 gneE6"/>
    </vehicle>
    <vehicle id="313" depart="66.89">
        <route edges="29 4 43 63 12 gneE6"/>
    </vehicle>
    <vehicle id="314" depart="67.11">
        <route edges="32 39 27"/>
    </vehicle>
    <vehicle id="315" depart="67.32">
        <route edges="23 51 21 71 58"/>
    </vehicle>
    <vehicle id="316" depart="67.53">
        <route edges="40 52 53"/>
    </vehicle>
    <vehicle id="317" depart="67.74">