<?xml version="1.0" encoding="UTF-8"?>

<!-- generated on 04/01/19 23:18:01 by Eclipse SUMO duarouter Version 1.1.0
<configuration xmlns:xsi="http://www.w3.org/2001/XMLSchema-instance" xsi:noNamespaceSchemaLocation="http://sumo.dlr.de/xsd/duarouterConfiguration.xsd">

    <input>
        <net-file value="net.net.xml"/>
        <route-files value="trips.trips.xml"/>
    </input>

    <output>
        <output-file value="out-30-60-40/./rou10.rou.xml"/>
        <alternatives-output value="out-30-60-40/./rou10.rou.alt.xml"/>
    </output>

    <time>
        <begin value="0.0"/>
        <end value="100.0"/>
    </time>

    <report>
        <no-warnings value="true"/>
        <ignore-errors value="true"/>
        <no-step-log value="true"/>
    </report>

</configuration>
-->

<routes xmlns:xsi="http://www.w3.org/2001/XMLSchema-instance" xsi:noNamespaceSchemaLocation="http://sumo.dlr.de/xsd/routes_file.xsd">
    <vehicle id="0" depart="0.00">
        <route edges="CC24CD24 CD24CC24 CC24CB24 CB24CA24 CA24BZ24 BZ24BY24 BY24BX24 BX24BW24 BW24BV24 BV24BU24 BU24BT24 BT24BS24 BS24BR24 BR24BQ24 BQ24BP24 BP24BO24 BO24BN24 BN24BM24 BM24BL24 BL24BK24 BK24BJ24 BJ24BJ25 BJ25BJ26 BJ26BJ27 BJ27BJ28 BJ28BJ29 BJ29BJ30 BJ30BJ1 BJ1BJ2 BJ2BK2"/>
    </vehicle>
    <vehicle id="1" depart="10.00">
        <route edges="CB29CB30 CB30CA30 CA30BZ30 BZ30BY30 BY30BX30 BX30BW30 BW30BV30 BV30BU30 BU30BT30 BT30BS30 BS30BR30 BR30BQ30 BQ30BP30 BP30BO30 BO30BN30 BN30BM30 BM30BL30 BL30BK30 BK30BJ30 BJ30BI30 BI30BH30 BH30BG30 BG30BF30 BF30BE30 BE30BD30 BD30BC30 BC30BB30 BB30BA30 BA30AZ30 AZ30AY30 AY30AX30 AX30AW30 AW30AV30 AV30AU30 AU30AT30 AT30AS30 AS30AS1 AS1AS2 AS2AS3 AS3AS4 AS4AS5 AS5AS6 AS6AS7 AS7AS8 AS8AS9 AS9AS8"/>
    </vehicle>
    <vehicle id="2" depart="20.00">
        <route edges="AJ8AI8 AI8AH8 AH8AG8 AG8AF8 AF8AE8 AE8AD8 AD8AC8 AC8AB8 AB8AB7 AB7AB6 AB6AB5 AB5AB4 AB4AB3 AB3AB2 AB2AB1 AB1AB30 AB30AB29 AB29AB28 AB28AB27 AB27AB26 AB26AC26 AC26AD26 AD26AE26 AE26AF26 AF26AG26 AG26AH26 AH26AI26 AI26AJ26 AJ26AK26 AK26AL26 AL26AM26 AM26AN26 AN26AO26 AO26AP26 AP26AQ26 AQ26AR26 AR26AS26 AS26AT26 AT26AU26 AU26AV26 AV26AW26 AW26AX26 AX26AY26 AY26AZ26 AZ26BA26 BA26BB26 BB26BC26 BC26BD26 BD26BD27"/>
    </vehicle>
    <vehicle id="3" depart="30.00">
        <route edges="BO28BP28 BP28BO28 BO28BN28 BN28BM28 BM28BL28 BL28BK28 BK28BJ28 BJ28BI28 BI28BH28 BH28BG28 BG28BF28 BF28BE28 BE28BD28 BD28BC28 BC28BB28 BB28BA28 BA28AZ28 AZ28AY28 AY28AX28 AX28AW28 AW28AV28 AV28AU28 AU28AT28 AT28AT29 AT29AT30 AT30AU30"/>
    </vehicle>
    <vehicle id="4" depart="40.00">
        <route edges="CF11CE11 CE11CD11 CD11CC11 CC11CC12 CC12CC11"/>
    </vehicle>
    <vehicle id="5" depart="50.00">
        <route edges="CE11CE12 CE12CD12 CD12CC12 CC12CB12 CB12CA12 CA12BZ12 BZ12BY12 BY12BX12 BX12BW12 BW12BV12 BV12BU12 BU12BT12 BT12BS12 BS12BR12 BR12BQ12 BQ12BP12 BP12BO12 BO12BN12 BN12BM12 BM12BL12 BL12BK12 BK12BK13 BK13BK14 BK14BK15 BK15BK16 BK16BK17 BK17BK18 BK18BK19 BK19BK20 BK20BK21 BK21BK22 BK22BL22"/>
    </vehicle>
    <vehicle id="6" depart="60.00">
        <route edges="AN22AN21 AN21AM21 AM21AL21 AL21AK21 AK21AJ21 AJ21AI21 AI21AH21 AH21AG21 AG21AF21 AF21AE21 AE21AD21 AD21AC21 AC21AB21 AB21AB20 AB20AB19 AB19AB18 AB18AB17 AB17AB16 AB16AB15 AB15AB14 AB14AB13 AB13AB12 AB12AB11 AB11AB10 AB10AB9 AB9AB8 AB8AC8 AC8AD8 AD8AE8 AE8AF8 AF8AG8 AG8AH8 AH8AI8 AI8AJ8 AJ8AK8 AK8AL8 AL8AM8 AM8AN8 AN8AO8 AO8AP8 AP8AQ8 AQ8AR8 AR8AS8 AS8AT8 AT8AU8 AU8AV8 AV8AW8 AW8AX8 AX8AY8 AY8AZ8 AZ8BA8 BA8BB8 BB8BC8 BC8BD8 BD8BE8 BE8BF8 BF8BG8 BG8BH8 BH8BI8 BI8BJ8 BJ8BK8 BK8BL8 BL8BM8 BM8BN8 BN8BO8 BO8BP8 BP8BP9"/>
    </vehicle>
    <vehicle id="7" depart="70.00">
        <route edges="BP13BO13 BO13BN13 BN13BM13 BM13BL13 BL13BL14 BL14BL15 BL15BL16 BL16BL17 BL17BL18 BL18BL19 BL19BL20 BL20BK20"/>
    </vehicle>
    <vehicle id="8" depart="80.00">
        <route edges="AC9AB9 AB9AB10 AB10AB11 AB11AB12 AB12AC12 AC12AD12 AD12AE12 AE12AF12 AF12AG12 AG12AH12 AH12AI12 AI12AJ12 AJ12AK12 AK12AL12 AL12AM12 AM12AN12 AN12AO12 AO12AP12 AP12AQ12 AQ12AR12 AR12AS12 AS12AT12 AT12AU12 AU12AV12 AV12AW12 AW12AX12 AX12AY12 AY12AZ12 AZ12BA12 BA12BB12 BB12BC12 BC12BD12 BD12BE12 BE12BF12 BF12BG12 BG12BH12 BH12BI12 BI12BJ12 BJ12BK12 BK12BK13"/>
    </vehicle>
    <vehicle id="9" depart="90.00">
        <route edges="BW10BW11 BW11BV11 BV11BU11 BU11BT11 BT11BS11 BS11BR11 BR11BQ11 BQ11BP11 BP11BO11 BO11BN11 BN11BM11 BM11BL11 BL11BK11 BK11BJ11 BJ11BI11 BI11BH11 BH11BG11 BG11BF11 BF11BE11 BE11BD11 BD11BC11 BC11BB11 BB11BA11 BA11AZ11 AZ11AY11 AY11AX11 AX11AW11 AW11AV11 AV11AU11 AU11AT11 AT11AS11 AS11AR11 AR11AQ11 AQ11AP11 AP11AO11 AO11AN11 AN11AM11 AM11AM10 AM10AM9 AM9AN9"/>
    </vehicle>
</routes>
