<?xml version="1.0" encoding="UTF-8"?>

<!-- generated on 04/01/19 23:18:20 by Eclipse SUMO duarouter Version 1.1.0
<configuration xmlns:xsi="http://www.w3.org/2001/XMLSchema-instance" xsi:noNamespaceSchemaLocation="http://sumo.dlr.de/xsd/duarouterConfiguration.xsd">

    <input>
        <net-file value="net.net.xml"/>
        <route-files value="trips.trips.xml"/>
    </input>

    <output>
        <output-file value="out-30-60-40/./rou1000.rou.xml"/>
        <alternatives-output value="out-30-60-40/./rou1000.rou.alt.xml"/>
    </output>

    <time>
        <begin value="0.0"/>
        <end value="100.0"/>
    </time>

    <report>
        <no-warnings value="true"/>
        <ignore-errors value="true"/>
        <no-step-log value="true"/>
    </report>

</configuration>
-->

<routes xmlns:xsi="http://www.w3.org/2001/XMLSchema-instance" xsi:noNamespaceSchemaLocation="http://sumo.dlr.de/xsd/routes_file.xsd">
    <vehicle id="0" depart="0.00">
        <route edges="CF29CF28 CF28CE28 CE28CD28 CD28CC28 CC28CB28 CB28CA28 CA28BZ28 BZ28BY28 BY28BX28 BX28BW28 BW28BV28 BV28BU28 BU28BT28 BT28BS28 BS28BR28 BR28BQ28 BQ28BP28 BP28BO28 BO28BN28 BN28BM28 BM28BL28 BL28BK28 BK28BJ28 BJ28BI28 BI28BH28 BH28BG28 BG28BF28 BF28BE28 BE28BD28 BD28BC28 BC28BB28 BB28BA28 BA28AZ28 AZ28AY28 AY28AX28 AX28AW28 AW28AV28 AV28AU28 AU28AT28 AT28AS28 AS28AR28 AR28AQ28 AQ28AP28 AP28AO28 AO28AN28 AN28AM28 AM28AL28 AL28AK28 AK28AJ28 AJ28AI28 AI28AH28 AH28AG28 AG28AF28 AF28AE28 AE28AD28 AD28AC28 AC28AB28 AB28AB27 AB27AB26 AB26AB25 AB25AB24 AB24AB23 AB23AB22 AB22AB21 AB21AB20 AB20AB19 AB19AB18 AB18AB17 AB17AB16 AB16AB15 AB15AB14 AB14AB13 AB13AC13 AC13AD13 AD13AE13 AE13AF13 AF13AG13 AG13AH13 AH13AI13 AI13AJ13 AJ13AK13 AK13AL13 AL13AM13 AM13AN13 AN13AO13 AO13AP13 AP13AQ13 AQ13AR13 AR13AS13 AS13AT13 AT13AU13 AU13AT13"/>
    </vehicle>
    <vehicle id="1" depart="0.10">
        <route edges="AY8AY9 AY9AY10 AY10AY11 AY11AY12 AY12AY13 AY13AY14 AY14AY15 AY15AZ15 AZ15BA15 BA15BB15 BB15BC15 BC15BD15 BD15BE15 BE15BF15 BF15BG15 BG15BH15 BH15BI15 BI15BJ15 BJ15BK15 BK15BL15 BL15BM15 BM15BN15 BN15BO15 BO15BO16"/>
    </vehicle>
    <vehicle id="2" depart="0.20">
        <route edges="BT20BT19 BT19BS19 BS19BR19 BR19BR18 BR18BR17 BR17BR16 BR16BR15"/>
    </vehicle>
    <vehicle id="3" depart="0.30">
        <route edges="AR23AR24 AR24AQ24 AQ24AP24 AP24AO24 AO24AN24 AN24AM24 AM24AL24 AL24AK24 AK24AJ24 AJ24AI24 AI24AH24 AH24AG24 AG24AF24 AF24AF23 AF23AF22 AF22AF21"/>
    </vehicle>
    <vehicle id="4" depart="0.40">
        <route edges="BG14BG13 BG13BF13 BF13BE13 BE13BD13 BD13BC13 BC13BB13 BB13BA13 BA13AZ13 AZ13AY13 AY13AX13 AX13AW13 AW13AV13 AV13AU13 AU13AT13 AT13AS13 AS13AR13 AR13AQ13 AQ13AP13 AP13AO13 AO13AN13 AN13AM13 AM13AL13 AL13AK13 AK13AJ13 AJ13AI13 AI13AH13 AH13AG13 AG13AF13 AF13AE13 AE13AD13 AD13AC13 AC13AB13 AB13AB12 AB12AB11 AB11AB10 AB10AB9 AB9AB8 AB8AB7 AB7AB6 AB6AB5 AB5AB4 AB4AB3 AB3AB2 AB2AB1 AB1AC1 AC1AD1 AD1AE1 AE1AF1 AF1AG1 AG1AH1 AH1AI1 AI1AJ1 AJ1AK1 AK1AL1 AL1AM1 AM1AM30"/>
    </vehicle>
    <vehicle id="5" depart="0.50">
        <route edges="AX30AX1 AX1AX30 AX30AX29 AX29AX28 AX28AX27 AX27AY27 AY27AZ27 AZ27BA27 BA27BB27 BB27BC27 BC27BD27 BD27BE27 BE27BF27 BF27BG27 BG27BH27 BH27BI27"/>
    </vehicle>
    <vehicle id="6" depart="0.60">
        <route edges="AZ20AZ21 AZ21AZ22 AZ22AZ23 AZ23AZ24 AZ24AZ25 AZ25AZ26 AZ26AZ27 AZ27AZ28 AZ28BA28 BA28BB28 BB28BC28 BC28BD28 BD28BE28 BE28BF28 BF28BG28 BG28BH28 BH28BI28 BI28BJ28 BJ28BK28 BK28BJ28"/>
    </vehicle>
    <vehicle id="7" depart="0.70">
        <route edges="BG28BF28 BF28BE28 BE28BD28 BD28BC28 BC28BC29 BC29BC30 BC30BC1 BC1BC2 BC2BC3 BC3BC4 BC4BC5 BC5BD5"/>
    </vehicle>
    <vehicle id="8" depart="0.80">
        <route edges="AJ7AI7 AI7AI8 AI8AI9 AI9AI10 AI10AI11 AI11AI12 AI12AI13 AI13AJ13 AJ13AK13 AK13AL13 AL13AM13 AM13AN13 AN13AO13 AO13AP13 AP13AQ13 AQ13AR13 AR13AS13 AS13AT13 AT13AU13 AU13AV13 AV13AW13 AW13AX13 AX13AY13 AY13AZ13 AZ13AZ12"/>
    </vehicle>
    <vehicle id="9" depart="0.90">
        <route edges="BK25BK26 BK26BJ26 BJ26BI26 BI26BH26 BH26BG26 BG26BF26 BF26BE26 BE26BD26 BD26BC26 BC26BB26 BB26BA26 BA26AZ26 AZ26AY26 AY26AX26 AX26AW26 AW26AV26 AV26AU26 AU26AT26 AT26AS26 AS26AR26 AR26AQ26 AQ26AP26 AP26AO26 AO26AN26 AN26AM26 AM26AL26 AL26AK26 AK26AJ26 AJ26AI26 AI26AH26 AH26AG26 AG26AF26 AF26AE26 AE26AD26 AD26AC26 AC26AC27 AC27AC28 AC28AC29 AC29AC30 AC30AC1 AC1AC2 AC2AC3 AC3AC4 AC4AC5 AC5AC6 AC6AC7 AC7AC8 AC8AD8 AD8AE8 AE8AF8"/>
    </vehicle>
    <vehicle id="10" depart="1.00">
        <route edges="AK26AJ26 AJ26AI26 AI26AH26 AH26AG26 AG26AF26 AF26AE26 AE26AD26 AD26AC26 AC26AC27 AC27AC28 AC28AC29 AC29AC30 AC30AC1 AC1AC2 AC2AC3 AC3AC4 AC4AC5 AC5AC6 AC6AC7 AC7AC8 AC8AC9 AC9AD9 AD9AE9 AE9AF9 AF9AG9 AG9AH9 AH9AI9 AI9AJ9 AJ9AK9 AK9AL9 AL9AM9 AM9AN9 AN9AO9 AO9AP9 AP9AQ9 AQ9AR9 AR9AS9 AS9AT9 AT9AU9 AU9AV9 AV9AW9 AW9AX9 AX9AY9 AY9AZ9 AZ9BA9 BA9BB9 BB9BC9 BC9BD9 BD9BE9 BE9BF9 BF9BG9 BG9BH9 BH9BI9 BI9BJ9 BJ9BK9 BK9BL9 BL9BM9 BM9BN9 BN9BO9 BO9BP9 BP9BQ9 BQ9BR9 BR9BS9 BS9BT9 BT9BU9 BU9BV9 BV9BW9"/>
    </vehicle>
    <vehicle id="11" depart="1.10">
        <route edges="AR20AS20 AS20AR20 AR20AQ20 AQ20AP20 AP20AO20 AO20AN20 AN20AM20 AM20AL20 AL20AK20 AK20AJ20 AJ20AI20 AI20AH20 AH20AG20 AG20AF20 AF20AE20 AE20AE21 AE21AE22 AE22AE23 AE23AE24 AE24AE25 AE25AE26 AE26AE27 AE27AE28"/>
    </vehicle>
    <vehicle id="12" depart="1.20">
        <route edges="CG23CH23 CH23CG23 CG23CF23 CF23CE23 CE23CD23 CD23CC23 CC23CB23 CB23CA23 CA23BZ23 BZ23BY23 BY23BX23 BX23BW23 BW23BV23 BV23BU23 BU23BT23 BT23BS23 BS23BR23 BR23BQ23 BQ23BP23 BP23BO23 BO23BN23 BN23BM23 BM23BL23 BL23BK23 BK23BJ23 BJ23BI23 BI23BH23 BH23BG23 BG23BF23 BF23BE23 BE23BD23 BD23BC23 BC23BB23 BB23BA23 BA23AZ23 AZ23AY23 AY23AX23 AX23AW23 AW23AV23 AV23AU23 AU23AT23 AT23AS23 AS23AR23 AR23AQ23 AQ23AP23 AP23AO23 AO23AN23 AN23AM23 AM23AL23 AL23AK23 AK23AJ23 AJ23AI23 AI23AH23 AH23AG23 AG23AF23 AF23AE23 AE23AD23 AD23AC23 AC23AB23 AB23AB22 AB22AB21 AB21AB20 AB20AB19 AB19AB18 AB18AB17 AB17AB16 AB16AB15 AB15AB14 AB14AB13 AB13AB12 AB12AB11 AB11AB10 AB10AB9 AB9AB8 AB8AC8 AC8AD8 AD8AE8 AE8AF8 AF8AG8 AG8AH8 AH8AI8 AI8AJ8 AJ8AK8 AK8AL8 AL8AM8 AM8AN8 AN8AO8 AO8AP8 AP8AQ8 AQ8AR8 AR8AS8 AS8AT8 AT8AU8 AU8AV8 AV8AW8 AW8AX8 AX8AY8 AY8AZ8 AZ8BA8 BA8BB8 BB8BC8 BC8BD8 BD8BE8 BE8BF8 BF8BG8 BG8BH8 BH8BI8 BI8BJ8 BJ8BK8 BK8BL8 BL8BM8 BM8BN8 BN8BO8 BO8BP8 BP8BQ8 BQ8BR8 BR8BS8 BS8BT8 BT8BU8 BU8BV8 BV8BW8 BW8BX8 BX8BY8 BY8BZ8 BZ8CA8 CA8CB8 CB8CC8 CC8CD8 CD8CE8 CE8CF8 CF8CG8 CG8CG7"/>
    </vehicle>
    <vehicle id="13" depart="1.30">
        <route edges="BM20BM21 BM21BM22 BM22BM23 BM23BM24 BM24BM25 BM25BM26 BM26BN26 BN26BO26 BO26BP26 BP26BQ26 BQ26BR26 BR26BS26 BS26BT26 BT26BU26 BU26BV26 BV26BW26 BW26BX26 BX26BY26 BY26BZ26 BZ26CA26 CA26CB26 CB26CC26 CC26CD26 CD26CE26 CE26CE27"/>
    </vehicle>
    <vehicle id="14" depart="1.40">
        <route edges="BS3BT3 BT3BS3 BS3BR3 BR3BQ3 BQ3BP3 BP3BO3 BO3BN3 BN3BM3 BM3BL3 BL3BK3 BK3BJ3 BJ3BI3 BI3BH3 BH3BG3 BG3BF3 BF3BE3 BE3BD3 BD3BC3 BC3BB3 BB3BA3 BA3BA2 BA2BA1 BA1BA30 BA30BA29 BA29BA28"/>
    </vehicle>
    <vehicle id="15" depart="1.50">
        <route edges="AE23AF23 AF23AE23 AE23AD23 AD23AC23 AC23AB23 AB23AB22 AB22AB21 AB21AB20 AB20AB19 AB19AB18 AB18AB17 AB17AB16 AB16AB15 AB15AB14 AB14AB13 AB13AB12 AB12AB11 AB11AB10 AB10AB9 AB9AB8 AB8AC8 AC8AD8 AD8AE8 AE8AF8 AF8AG8 AG8AH8 AH8AI8 AI8AJ8 AJ8AK8 AK8AL8 AL8AM8 AM8AN8 AN8AO8 AO8AP8 AP8AQ8 AQ8AR8 AR8AS8 AS8AT8 AT8AU8 AU8AV8 AV8AW8 AW8AX8 AX8AY8 AY8AZ8 AZ8BA8 BA8BB8 BB8BC8 BC8BD8 BD8BE8 BE8BF8 BF8BG8 BG8BH8 BH8BI8 BI8BJ8 BJ8BK8 BK8BL8 BL8BL9"/>
    </vehicle>
    <vehicle id="16" depart="1.60">
        <route edges="AD9AE9 AE9AD9 AD9AC9 AC9AC10 AC10AC11 AC11AC12 AC12AC13 AC13AC14 AC14AC15 AC15AC16 AC16AC17 AC17AC18 AC18AC19 AC19AC20 AC20AC21 AC21AC22 AC22AD22 AD22AE22 AE22AF22 AF22AG22 AG22AH22 AH22AI22 AI22AJ22 AJ22AK22 AK22AL22 AL22AM22 AM22AN22 AN22AO22 AO22AP22 AP22AQ22 AQ22AR22 AR22AS22 AS22AT22 AT22AU22 AU22AV22 AV22AW22 AW22AX22 AX22AY22 AY22AZ22 AZ22BA22 BA22BB22 BB22BC22 BC22BD22 BD22BE22 BE22BF22 BF22BG22 BG22BH22 BH22BI22 BI22BJ22 BJ22BK22 BK22BL22 BL22BM22 BM22BN22 BN22BO22 BO22BP22 BP22BQ22 BQ22BR22 BR22BS22 BS22BT22 BT22BU22 BU22BU23"/>
    </vehicle>
    <vehicle id="17" depart="1.70">
        <route edges="AI21AJ21 AJ21AJ20 AJ20AJ19 AJ19AJ18 AJ18AJ17 AJ17AJ16 AJ16AJ15 AJ15AJ14 AJ14AJ13 AJ13AK13 AK13AL13 AL13AM13 AM13AN13 AN13AO13 AO13AP13 AP13AQ13 AQ13AR13 AR13AS13 AS13AT13 AT13AU13 AU13AV13 AV13AW13 AW13AX13 AX13AY13 AY13AZ13 AZ13BA13 BA13BB13 BB13BC13 BC13BD13 BD13BE13 BE13BF13 BF13BG13 BG13BH13 BH13BI13 BI13BJ13 BJ13BK13 BK13BL13 BL13BM13 BM13BN13 BN13BO13 BO13BP13 BP13BQ13 BQ13BR13 BR13BS13 BS13BT13 BT13BU13 BU13BV13 BV13BW13 BW13BX13 BX13BY13 BY13BY12"/>
    </vehicle>
    <vehicle id="18" depart="1.80">
        <route edges="BQ14BQ15 BQ15BQ16 BQ16BQ17 BQ17BQ18 BQ18BQ19 BQ19BR19 BR19BS19 BS19BT19 BT19BU19 BU19BV19 BV19BW19 BW19BX19 BX19BW19"/>
    </vehicle>
    <vehicle id="19" depart="1.90">
        <route edges="AX21AW21 AW21AV21 AV21AU21 AU21AT21 AT21AS21 AS21AR21 AR21AQ21 AQ21AP21 AP21AO21 AO21AN21 AN21AN22 AN22AM22"/>
    </vehicle>
    <vehicle id="20" depart="2.00">
        <route edges="AN13AM13 AM13AL13 AL13AK13 AK13AJ13 AJ13AI13 AI13AH13 AH13AG13 AG13AF13 AF13AE13 AE13AD13 AD13AD12 AD12AD11 AD11AD10 AD10AD9 AD9AD8 AD8AD7 AD7AD6 AD6AD5 AD5AD4 AD4AD3"/>
    </vehicle>
    <vehicle id="21" depart="2.10">
        <route edges="CH22CH21 CH21CG21 CG21CF21 CF21CE21 CE21CD21 CD21CC21 CC21CB21 CB21CA21 CA21BZ21 BZ21BY21 BY21BX21 BX21BW21 BW21BV21 BV21BU21 BU21BT21 BT21BS21 BS21BR21 BR21BQ21 BQ21BP21 BP21BO21 BO21BN21 BN21BM21 BM21BL21 BL21BK21 BK21BJ21 BJ21BI21 BI21BH21 BH21BG21 BG21BF21 BF21BF20 BF20BF19 BF19BF18 BF18BF17 BF17BF16 BF16BG16"/>
    </vehicle>
    <vehicle id="22" depart="2.20">
        <route edges="CB2CC2 CC2CB2 CB2CB3 CB3CB4 CB4CB5 CB5CB6 CB6CB7 CB7CB8 CB8CB9 CB9CB10 CB10CB11 CB11CC11 CC11CC10"/>
    </vehicle>
    <vehicle id="23" depart="2.30">
        <route edges="BZ11BZ10 BZ10BZ11 BZ11BZ12 BZ12BZ13 BZ13BZ14 BZ14BZ15 BZ15BZ16 BZ16CA16 CA16CB16 CB16CC16 CC16CD16"/>
    </vehicle>
    <vehicle id="24" depart="2.40">
        <route edges="BW4BX4 BX4BW4 BW4BV4 BV4BU4 BU4BT4 BT4BS4 BS4BR4 BR4BQ4 BQ4BP4 BP4BO4 BO4BN4 BN4BM4 BM4BL4 BL4BK4 BK4BJ4 BJ4BI4 BI4BH4 BH4BG4 BG4BF4 BF4BE4 BE4BD4 BD4BC4 BC4BB4 BB4BA4 BA4AZ4 AZ4AY4 AY4AX4 AX4AW4 AW4AV4 AV4AU4 AU4AT4 AT4AS4 AS4AR4 AR4AQ4 AQ4AP4 AP4AO4 AO4AN4 AN4AM4 AM4AL4 AL4AK4 AK4AJ4 AJ4AI4 AI4AH4 AH4AG4 AG4AF4 AF4AE4 AE4AD4 AD4AD5 AD5AD6 AD6AD7 AD7AD8 AD8AD9 AD9AD8"/>
    </vehicle>
    <vehicle id="25" depart="2.50">
        <route edges="BR30BS30 BS30BS1 BS1BS2 BS2BS3 BS3BS4 BS4BT4 BT4BU4 BU4BV4 BV4BW4 BW4BX4 BX4BW4"/>
    </vehicle>
    <vehicle id="26" depart="2.60">
        <route edges="BF10BF9 BF9BE9 BE9BD9 BD9BC9 BC9BB9 BB9BA9 BA9AZ9 AZ9AY9 AY9AX9 AX9AW9 AW9AV9 AV9AU9 AU9AT9 AT9AS9 AS9AR9 AR9AQ9 AQ9AP9 AP9AO9 AO9AN9 AN9AM9 AM9AL9 AL9AK9 AK9AJ9 AJ9AI9 AI9AH9 AH9AG9 AG9AF9 AF9AE9 AE9AD9 AD9AC9 AC9AC10 AC10AC11 AC11AC12 AC12AC13 AC13AC14 AC14AC15 AC15AC16 AC16AC17 AC17AC18 AC18AC19 AC19AC20 AC20AD20 AD20AE20 AE20AF20 AF20AG20 AG20AH20 AH20AI20 AI20AJ20 AJ20AK20 AK20AL20 AL20AM20 AM20AN20 AN20AO20 AO20AP20 AP20AQ20 AQ20AR20 AR20AS20 AS20AT20 AT20AU20 AU20AV20 AV20AW20 AW20AX20 AX20AY20 AY20AZ20 AZ20BA20 BA20BB20 BB20BC20 BC20BD20 BD20BE20 BE20BF20 BF20BG20 BG20BH20 BH20BI20 BI20BJ20 BJ20BK20 BK20BL20 BL20BM20 BM20BL20"/>
    </vehicle>
    <vehicle id="27" depart="2.70">
        <route edges="AG19AH19 AH19AG19 AG19AG18 AG18AG17 AG17AG16 AG16AG15 AG15AG14 AG14AF14"/>
    </vehicle>
    <vehicle id="28" depart="2.80">
        <route edges="BO7BP7 BP7BO7 BO7BN7 BN7BM7 BM7BL7 BL7BK7 BK7BJ7 BJ7BI7 BI7BH7 BH7BG7 BG7BF7 BF7BE7 BE7BD7 BD7BC7 BC7BB7 BB7BA7 BA7AZ7 AZ7AY7 AY7AX7 AX7AW7 AW7AV7 AV7AU7 AU7AT7 AT7AS7 AS7AR7 AR7AQ7 AQ7AP7 AP7AO7 AO7AN7 AN7AN6 AN6AN5 AN5AN4 AN4AN3 AN3AN2 AN2AN3"/>
    </vehicle>
    <vehicle id="29" depart="2.90">
        <route edges="BN30BN1 BN1BN2 BN2BN3 BN3BO3 BO3BP3 BP3BP2"/>
    </vehicle>
    <vehicle id="30" depart="3.00">
        <route edges="AW17AX17 AX17AW17 AW17AW18 AW18AW19 AW19AW20 AW20AW21 AW21AW22 AW22AW23 AW23AW24 AW24AW25 AW25AW26 AW26AW27 AW27AX27 AX27AY27 AY27AX27"/>
    </vehicle>
    <vehicle id="31" depart="3.10">
        <route edges="CB1CB30 CB30CA30 CA30BZ30 BZ30BY30 BY30BX30 BX30BW30 BW30BV30 BV30BU30 BU30BT30 BT30BS30 BS30BR30 BR30BQ30 BQ30BP30 BP30BO30 BO30BN30 BN30BM30 BM30BL30 BL30BK30 BK30BJ30 BJ30BI30 BI30BI29 BI29BI28 BI28BI27 BI27BI26 BI26BI25 BI25BI24 BI24BI23 BI23BI22 BI22BI23"/>
    </vehicle>
    <vehicle id="32" depart="3.20">
        <route edges="CF10CE10 CE10CD10 CD10CC10 CC10CB10 CB10CA10 CA10BZ10 BZ10BY10 BY10BX10 BX10BW10 BW10BV10 BV10BU10 BU10BT10 BT10BS10 BS10BR10 BR10BQ10 BQ10BP10 BP10BO10 BO10BN10 BN10BM10 BM10BL10 BL10BK10 BK10BJ10 BJ10BI10 BI10BH10 BH10BG10 BG10BF10 BF10BE10 BE10BD10 BD10BC10 BC10BB10 BB10BA10 BA10AZ10 AZ10AY10 AY10AX10 AX10AW10 AW10AV10 AV10AU10 AU10AT10 AT10AS10 AS10AR10 AR10AQ10 AQ10AP10 AP10AO10 AO10AN10 AN10AM10 AM10AL10 AL10AK10 AK10AJ10 AJ10AI10 AI10AH10 AH10AG10 AG10AF10 AF10AE10 AE10AD10 AD10AC10 AC10AB10 AB10AB9 AB9AB8 AB8AB7 AB7AB6 AB6AB5 AB5AB4 AB4AB3 AB3AB2 AB2AB1 AB1AB30 AB30AB29 AB29AB28 AB28AB27 AB27AC27 AC27AD27 AD27AE27 AE27AF27 AF27AG27 AG27AH27 AH27AI27 AI27AJ27 AJ27AK27 AK27AL27 AL27AM27 AM27AN27 AN27AO27 AO27AP27 AP27AQ27 AQ27AR27 AR27AS27 AS27AT27 AT27AU27 AU27AV27 AV27AW27 AW27AX27 AX27AY27 AY27AZ27 AZ27BA27 BA27BB27 BB27BC27 BC27BD27 BD27BE27 BE27BF27 BF27BG27 BG27BH27 BH27BI27 BI27BJ27 BJ27BK27 BK27BL27 BL27BM27 BM27BN27 BN27BO27 BO27BP27 BP27BQ27 BQ27BR27 BR27BS27 BS27BT27 BT27BU27 BU27BV27 BV27BW27 BW27BX27 BX27BY27 BY27BZ27 BZ27CA27 CA27CB27 CB27CC27 CC27CD27 CD27CE27 CE27CF27 CF27CF26"/>
    </vehicle>
    <vehicle id="33" depart="3.30">
        <route edges="BK23BL23 BL23BK23 BK23BJ23 BJ23BI23 BI23BH23 BH23BG23 BG23BF23 BF23BE23 BE23BD23 BD23BC23 BC23BB23 BB23BA23 BA23AZ23 AZ23AY23 AY23AX23 AX23AW23 AW23AV23 AV23AU23 AU23AT23 AT23AS23 AS23AR23 AR23AQ23 AQ23AP23 AP23AO23 AO23AN23 AN23AM23 AM23AL23 AL23AK23 AK23AJ23 AJ23AI23 AI23AH23 AH23AG23 AG23AF23 AF23AE23 AE23AD23 AD23AC23 AC23AC24 AC24AC25 AC25AC26 AC26AC27 AC27AC28 AC28AC29 AC29AC30 AC30AC1 AC1AC2 AC2AC3 AC3AC4 AC4AC5 AC5AC6 AC6AD6 AD6AE6 AE6AF6 AF6AG6 AG6AH6 AH6AI6 AI6AJ6 AJ6AK6 AK6AL6 AL6AM6 AM6AN6 AN6AO6 AO6AP6 AP6AQ6 AQ6AR6 AR6AS6 AS6AT6 AT6AU6 AU6AV6 AV6AW6 AW6AX6 AX6AY6 AY6AZ6 AZ6BA6 BA6BB6 BB6BC6 BC6BD6 BD6BE6 BE6BF6 BF6BG6 BG6BH6 BH6BI6 BI6BJ6"/>
    </vehicle>
    <vehicle id="34" depart="3.40">
        <route edges="AD14AE14 AE14AE13 AE13AF13 AF13AG13 AG13AH13 AH13AI13 AI13AJ13 AJ13AK13 AK13AL13 AL13AM13 AM13AN13 AN13AO13 AO13AP13 AP13AQ13 AQ13AR13 AR13AQ13"/>
    </vehicle>
    <vehicle id="35" depart="3.50">
        <route edges="BN10BM10 BM10BL10 BL10BK10 BK10BJ10 BJ10BJ11 BJ11BJ12 BJ12BJ13"/>
    </vehicle>
    <vehicle id="36" depart="3.60">
        <route edges="AR27AQ27 AQ27AP27 AP27AO27 AO27AN27 AN27AM27 AM27AL27 AL27AK27 AK27AJ27 AJ27AI27 AI27AH27 AH27AG27 AG27AF27 AF27AE27 AE27AE28 AE28AE29 AE29AE30 AE30AE1 AE1AE2 AE2AE3 AE3AE4 AE4AE5 AE5AE6 AE6AE7 AE7AF7"/>
    </vehicle>
    <vehicle id="37" depart="3.70">
        <route edges="AQ6AQ5 AQ5AP5 AP5AO5 AO5AN5 AN5AM5 AM5AL5 AL5AK5 AK5AJ5 AJ5AI5 AI5AI6 AI6AI7 AI7AJ7"/>
    </vehicle>
    <vehicle id="38" depart="3.80">
        <route edges="BE30BE1 BE1BE2 BE2BE3 BE3BE4 BE4BE5 BE5BE6 BE6BF6 BF6BG6 BG6BH6 BH6BI6 BI6BJ6 BJ6BK6 BK6BL6 BL6BM6 BM6BN6 BN6BO6 BO6BP6 BP6BQ6 BQ6BQ5"/>
    </vehicle>
    <vehicle id="39" depart="3.90">
        <route edges="CG16CG17 CG17CF17 CF17CE17 CE17CD17 CD17CC17 CC17CB17 CB17CA17 CA17BZ17 BZ17BY17 BY17BX17 BX17BW17 BW17BV17 BV17BU17 BU17BT17 BT17BS17 BS17BR17 BR17BQ17 BQ17BP17 BP17BO17 BO17BN17 BN17BM17 BM17BL17 BL17BK17 BK17BJ17 BJ17BI17 BI17BH17 BH17BG17 BG17BF17 BF17BE17 BE17BD17 BD17BC17 BC17BB17 BB17BA17 BA17AZ17 AZ17AY17 AY17AX17 AX17AW17 AW17AV17 AV17AU17 AU17AT17 AT17AS17 AS17AR17 AR17AQ17 AQ17AP17 AP17AO17 AO17AO18 AO18AO19 AO19AO20 AO20AO21 AO21AO22 AO22AO23 AO23AO24 AO24AO25 AO25AO26 AO26AN26"/>
    </vehicle>
    <vehicle id="40" depart="4.00">
        <route edges="AU20AU19 AU19AU18 AU18AU17 AU17AU16 AU16AU15 AU15AU14 AU14AU13 AU13AU12 AU12AU11 AU11AU10 AU10AV10 AV10AW10 AW10AX10 AX10AY10 AY10AZ10 AZ10BA10 BA10BB10 BB10BC10 BC10BD10 BD10BE10 BE10BF10 BF10BG10 BG10BH10 BH10BI10 BI10BJ10 BJ10BK10 BK10BL10 BL10BM10 BM10BN10 BN10BO10 BO10BP10 BP10BQ10 BQ10BR10 BR10BQ10"/>
    </vehicle>
    <vehicle id="41" depart="4.10">
        <route edges="BP24BO24 BO24BN24 BN24BM24 BM24BL24 BL24BK24 BK24BJ24 BJ24BI24 BI24BH24 BH24BG24 BG24BF24 BF24BE24 BE24BD24 BD24BC24 BC24BB24 BB24BA24 BA24AZ24 AZ24AY24 AY24AX24 AX24AW24 AW24AV24 AV24AU24 AU24AT24 AT24AS24 AS24AR24 AR24AQ24 AQ24AP24 AP24AO24 AO24AN24 AN24AM24 AM24AL24 AL24AK24 AK24AJ24 AJ24AI24 AI24AH24 AH24AG24 AG24AG23 AG23AG22 AG22AG21 AG21AG20 AG20AG19 AG19AG18 AG18AF18"/>
    </vehicle>
    <vehicle id="42" depart="4.20">
        <route edges="AJ10AK10 AK10AJ10 AJ10AJ11 AJ11AJ12 AJ12AJ13 AJ13AJ14 AJ14AJ15 AJ15AJ16 AJ16AJ17 AJ17AJ18 AJ18AJ19 AJ19AK19 AK19AL19 AL19AM19 AM19AN19 AN19AO19 AO19AP19 AP19AQ19 AQ19AR19 AR19AS19 AS19AT19 AT19AU19 AU19AV19 AV19AW19 AW19AX19 AX19AY19 AY19AZ19 AZ19BA19 BA19BB19 BB19BC19 BC19BD19 BD19BE19 BE19BF19 BF19BG19 BG19BH19 BH19BI19 BI19BJ19 BJ19BK19 BK19BL19 BL19BM19 BM19BN19 BN19BO19 BO19BP19 BP19BQ19 BQ19BQ20"/>
    </vehicle>
    <vehicle id="43" depart="4.30">
        <route edges="BK25BK24 BK24BJ24 BJ24BI24 BI24BH24 BH24BG24 BG24BF24 BF24BE24 BE24BD24 BD24BC24 BC24BB24 BB24BA24 BA24AZ24 AZ24AY24 AY24AX24 AX24AX23 AX23AW23"/>
    </vehicle>
    <vehicle id="44" depart="4.40">
        <route edges="AC22AC21 AC21AC20 AC20AC19 AC19AC18 AC18AC17 AC17AC16 AC16AC15 AC15AC14 AC14AD14 AD14AE14 AE14AF14 AF14AG14 AG14AH14 AH14AI14 AI14AJ14 AJ14AK14 AK14AL14 AL14AM14 AM14AN14 AN14AO14 AO14AP14 AP14AQ14 AQ14AR14 AR14AS14 AS14AT14 AT14AU14 AU14AV14 AV14AW14 AW14AX14 AX14AY14 AY14AZ14 AZ14BA14 BA14BB14 BB14BC14 BC14BD14 BD14BE14 BE14BF14 BF14BG14 BG14BH14 BH14BI14 BI14BJ14 BJ14BK14 BK14BL14 BL14BM14 BM14BN14 BN14BO14 BO14BP14 BP14BQ14 BQ14BR14 BR14BS14 BS14BT14 BT14BU14 BU14BV14 BV14BW14 BW14BX14 BX14BY14 BY14BZ14 BZ14BZ13"/>
    </vehicle>
    <vehicle id="45" depart="4.50">
        <route edges="AF11AE11 AE11AD11 AD11AC11 AC11AB11 AB11AB10 AB10AB9 AB9AB8 AB8AB7 AB7AB6 AB6AB5 AB5AB4 AB4AB3 AB3AB2 AB2AB1 AB1AB30 AB30AB29 AB29AC29 AC29AD29 AD29AE29 AE29AF29 AF29AG29 AG29AH29 AH29AI29 AI29AJ29 AJ29AK29 AK29AL29 AL29AM29 AM29AN29 AN29AO29 AO29AP29 AP29AQ29 AQ29AR29 AR29AS29 AS29AT29 AT29AU29 AU29AV29 AV29AW29 AW29AX29 AX29AY29 AY29AZ29 AZ29BA29 BA29BB29 BB29BC29 BC29BD29 BD29BE29 BE29BF29 BF29BG29 BG29BH29 BH29BI29 BI29BJ29 BJ29BK29 BK29BK30"/>
    </vehicle>
    <vehicle id="46" depart="4.60">
        <route edges="CD23CD22 CD22CC22 CC22CB22 CB22CA22 CA22BZ22 BZ22BY22 BY22BX22 BX22BW22 BW22BV22 BV22BU22 BU22BT22 BT22BS22 BS22BR22 BR22BQ22 BQ22BP22 BP22BO22 BO22BN22 BN22BM22 BM22BL22 BL22BK22 BK22BJ22 BJ22BI22 BI22BH22 BH22BG22 BG22BF22 BF22BE22 BE22BD22 BD22BC22 BC22BB22 BB22BA22 BA22AZ22 AZ22AY22 AY22AX22 AX22AW22 AW22AV22 AV22AU22 AU22AT22 AT22AT23 AT23AT24 AT24AT25 AT25AU25"/>
    </vehicle>
    <vehicle id="47" depart="4.70">
        <route edges="AH7AH6 AH6AG6 AG6AF6 AF6AE6 AE6AD6 AD6AC6 AC6AB6 AB6AB5 AB5AB4 AB4AB3 AB3AB2 AB2AB1 AB1AB30 AB30AB29 AB29AB28 AB28AB27 AB27AB26 AB26AB25 AB25AB24 AB24AB23 AB23AC23 AC23AD23 AD23AE23 AE23AF23 AF23AG23 AG23AH23 AH23AI23 AI23AJ23 AJ23AK23 AK23AL23 AL23AM23 AM23AN23 AN23AO23 AO23AP23 AP23AQ23 AQ23AR23 AR23AS23 AS23AT23 AT23AU23 AU23AV23 AV23AW23 AW23AX23 AX23AY23 AY23AZ23 AZ23BA23 BA23BB23 BB23BC23 BC23BD23 BD23BE23 BE23BF23 BF23BG23 BG23BH23 BH23BI23 BI23BJ23 BJ23BK23 BK23BL23 BL23BM23 BM23BN23 BN23BO23 BO23BP23 BP23BQ23 BQ23BR23 BR23BS23 BS23BS24"/>
    </vehicle>
    <vehicle id="48" depart="4.80">
        <route edges="BM15BL15 BL15BK15 BK15BJ15 BJ15BI15 BI15BH15 BH15BG15 BG15BF15 BF15BE15 BE15BD15 BD15BC15 BC15BB15 BB15BA15 BA15AZ15 AZ15AY15 AY15AX15 AX15AW15 AW15AV15 AV15AU15 AU15AT15 AT15AS15 AS15AR15 AR15AQ15 AQ15AP15 AP15AO15 AO15AN15 AN15AM15 AM15AL15 AL15AK15 AK15AJ15 AJ15AI15 AI15AH15 AH15AG15 AG15AF15 AF15AE15 AE15AD15 AD15AC15 AC15AC16 AC16AC17 AC17AC18 AC18AC19 AC19AC20 AC20AC21 AC21AC22 AC22AC23 AC23AC24 AC24AC25 AC25AC26 AC26AC27 AC27AD27 AD27AE27 AE27AF27 AF27AG27 AG27AH27 AH27AI27 AI27AJ27 AJ27AK27 AK27AL27 AL27AM27 AM27AN27 AN27AO27 AO27AP27 AP27AQ27 AQ27AR27 AR27AS27 AS27AT27 AT27AU27 AU27AV27 AV27AW27 AW27AW28"/>
    </vehicle>
    <vehicle id="49" depart="4.90">
        <route edges="CD21CD20 CD20CC20 CC20CB20 CB20CA20 CA20BZ20 BZ20BY20 BY20BX20 BX20BW20 BW20BV20 BV20BU20 BU20BT20 BT20BS20 BS20BR20 BR20BQ20 BQ20BP20 BP20BO20 BO20BN20 BN20BM20 BM20BL20 BL20BK20 BK20BJ20 BJ20BI20 BI20BH20 BH20BG20 BG20BF20 BF20BE20 BE20BD20 BD20BC20 BC20BB20 BB20BA20 BA20AZ20 AZ20AY20 AY20AY21 AY21AY22 AY22AY23 AY23AY24 AY24AY25 AY25AY26"/>
    </vehicle>
    <vehicle id="50" depart="5.00">
        <route edges="BQ26BQ27 BQ27BQ26 BQ26BQ25 BQ25BQ24 BQ24BQ23 BQ23BQ22 BQ22BQ21 BQ21BR21 BR21BS21 BS21BS22"/>
    </vehicle>
    <vehicle id="51" depart="5.10">
        <route edges="BZ20BZ19 BZ19BY19 BY19BX19 BX19BW19 BW19BV19 BV19BU19 BU19BT19 BT19BS19 BS19BR19 BR19BQ19 BQ19BP19 BP19BO19 BO19BN19 BN19BM19 BM19BL19 BL19BK19 BK19BJ19 BJ19BI19 BI19BH19 BH19BG19 BG19BF19 BF19BE19 BE19BD19 BD19BC19 BC19BB19 BB19BA19 BA19AZ19 AZ19AY19 AY19AX19 AX19AW19 AW19AV19 AV19AV18 AV18AV19"/>
    </vehicle>
    <vehicle id="52" depart="5.20">
        <route edges="AX28AY28 AY28AX28 AX28AW28 AW28AV28 AV28AU28 AU28AT28 AT28AS28 AS28AR28 AR28AQ28 AQ28AQ27 AQ27AR27"/>
    </vehicle>
    <vehicle id="53" depart="5.30">
        <route edges="AL18AM18 AM18AL18 AL18AK18 AK18AJ18 AJ18AI18 AI18AH18 AH18AG18 AG18AF18 AF18AF17 AF17AF16 AF16AF15 AF15AF14 AF14AF13 AF13AF12 AF12AF11 AF11AF12"/>
    </vehicle>
    <vehicle id="54" depart="5.40">
        <route edges="BI25BH25 BH25BG25 BG25BF25 BF25BE25 BE25BD25 BD25BC25 BC25BB25 BB25BA25 BA25AZ25 AZ25AY25 AY25AX25 AX25AW25 AW25AV25 AV25AU25 AU25AT25 AT25AS25 AS25AR25 AR25AQ25 AQ25AP25 AP25AO25 AO25AN25 AN25AM25 AM25AL25 AL25AK25 AK25AK24 AK24AK23 AK23AK22 AK22AK21 AK21AK20 AK20AK19 AK19AK18 AK18AK17 AK17AK16 AK16AK15"/>
    </vehicle>
    <vehicle id="55" depart="5.50">
        <route edges="BS25BS24 BS24BR24 BR24BQ24 BQ24BP24 BP24BO24 BO24BN24 BN24BM24 BM24BL24 BL24BK24 BK24BJ24 BJ24BI24 BI24BH24 BH24BG24 BG24BF24 BF24BE24 BE24BD24 BD24BC24 BC24BB24 BB24BA24 BA24AZ24 AZ24AY24 AY24AY23 AY23AY22 AY22AY21 AY21AY20 AY20AY19 AY19AY18 AY18AY17 AY17AX17"/>
    </vehicle>
    <vehicle id="56" depart="5.60">
        <route edges="BG30BH30 BH30BH1 BH1BH2 BH2BH3 BH3BH4 BH4BH5 BH5BH6 BH6BI6 BI6BJ6 BJ6BK6 BK6BL6 BL6BM6 BM6BN6 BN6BO6 BO6BP6 BP6BQ6 BQ6BR6 BR6BS6 BS6BT6 BT6BU6 BU6BV6 BV6BW6 BW6BX6 BX6BY6 BY6BZ6 BZ6CA6 CA6CB6 CB6CC6 CC6CD6 CD6CE6 CE6CF6 CF6CG6 CG6CH6 CH6CI6 CI6CH6"/>
    </vehicle>
    <vehicle id="57" depart="5.70">
        <route edges="AY30AY1 AY1AY2 AY2AY3 AY3AY4 AY4AY5 AY5AY6 AY6AZ6 AZ6BA6 BA6BB6 BB6BC6 BC6BD6 BD6BE6 BE6BF6 BF6BG6 BG6BH6 BH6BI6 BI6BJ6 BJ6BK6 BK6BL6 BL6BM6 BM6BN6 BN6BO6"/>
    </vehicle>
    <vehicle id="58" depart="5.80">
        <route edges="CH6CI6 CI6CH6 CH6CG6 CG6CF6 CF6CE6 CE6CD6 CD6CC6 CC6CB6 CB6CA6 CA6BZ6 BZ6BY6 BY6BX6 BX6BW6 BW6BV6 BV6BU6 BU6BT6 BT6BS6 BS6BR6 BR6BQ6 BQ6BP6 BP6BO6 BO6BN6 BN6BM6 BM6BL6 BL6BK6 BK6BJ6 BJ6BI6 BI6BH6 BH6BG6 BG6BF6 BF6BE6 BE6BE5"/>
    </vehicle>
    <vehicle id="59" depart="5.90">
        <route edges="BZ9BY9 BY9BX9 BX9BW9 BW9BV9 BV9BU9 BU9BT9 BT9BS9 BS9BR9 BR9BQ9 BQ9BP9 BP9BP10 BP10BP11 BP11BP12 BP12BP13 BP13BO13"/>
    </vehicle>
    <vehicle id="60" depart="6.00">
        <route edges="BP6BP7 BP7BO7 BO7BN7 BN7BM7 BM7BL7 BL7BK7 BK7BJ7 BJ7BI7 BI7BH7 BH7BG7 BG7BF7 BF7BE7 BE7BD7 BD7BC7 BC7BB7 BB7BA7 BA7AZ7 AZ7AY7 AY7AX7 AX7AW7 AW7AV7 AV7AU7 AU7AT7 AT7AS7 AS7AR7 AR7AQ7 AQ7AP7 AP7AO7 AO7AN7 AN7AM7 AM7AL7 AL7AK7 AK7AJ7 AJ7AI7 AI7AH7 AH7AG7 AG7AF7 AF7AE7 AE7AD7 AD7AC7 AC7AB7 AB7AB6 AB6AB5 AB5AB4 AB4AB3 AB3AB2 AB2AB1 AB1AB30 AB30AB29 AB29AB28 AB28AB27 AB27AB26 AB26AB25 AB25AC25 AC25AD25 AD25AE25 AE25AF25 AF25AG25 AG25AH25 AH25AI25 AI25AJ25 AJ25AK25 AK25AL25 AL25AM25 AM25AN25 AN25AO25 AO25AP25 AP25AQ25 AQ25AR25 AR25AS25 AS25AT25 AT25AU25 AU25AV25 AV25AW25 AW25AX25 AX25AY25 AY25AZ25 AZ25BA25 BA25BB25 BB25BC25 BC25BD25 BD25BE25 BE25BF25 BF25BG25 BG25BH25 BH25BI25 BI25BJ25 BJ25BK25 BK25BL25 BL25BM25 BM25BN25 BN25BO25 BO25BP25 BP25BQ25 BQ25BR25 BR25BS25 BS25BT25 BT25BU25 BU25BV25 BV25BU25"/>
    </vehicle>
    <vehicle id="61" depart="6.10">
        <route edges="AM7AM8 AM8AL8 AL8AK8 AK8AJ8 AJ8AI8 AI8AH8 AH8AG8 AG8AF8 AF8AE8 AE8AD8 AD8AC8 AC8AB8 AB8AB7 AB7AB6 AB6AB5 AB5AB4 AB4AB3 AB3AB2 AB2AB1 AB1AB30 AB30AB29 AB29AB28 AB28AB27 AB27AB26 AB26AC26 AC26AD26 AD26AE26 AE26AF26 AF26AG26 AG26AH26 AH26AI26 AI26AJ26 AJ26AK26 AK26AL26 AL26AM26 AM26AN26 AN26AO26 AO26AP26 AP26AQ26 AQ26AR26 AR26AS26 AS26AT26 AT26AU26 AU26AV26 AV26AW26 AW26AX26 AX26AY26 AY26AZ26 AZ26BA26 BA26BB26 BB26BC26 BC26BD26 BD26BE26 BE26BF26 BF26BG26 BG26BH26 BH26BI26 BI26BJ26 BJ26BK26 BK26BL26 BL26BM26 BM26BN26 BN26BO26 BO26BP26 BP26BQ26 BQ26BR26 BR26BS26 BS26BT26 BT26BU26 BU26BV26 BV26BW26 BW26BX26 BX26BY26 BY26BZ26 BZ26CA26 CA26CB26 CB26CB27"/>
    </vehicle>
    <vehicle id="62" depart="6.20">
        <route edges="BA3BB3 BB3BC3 BC3BD3 BD3BE3 BE3BF3 BF3BG3 BG3BH3 BH3BI3 BI3BJ3 BJ3BK3 BK3BL3 BL3BM3 BM3BN3 BN3BO3 BO3BP3 BP3BQ3 BQ3BR3 BR3BS3 BS3BT3 BT3BU3 BU3BV3 BV3BW3 BW3BX3 BX3BY3 BY3BZ3 BZ3CA3 CA3CB3 CB3CC3 CC3CD3 CD3CE3 CE3CF3 CF3CG3 CG3CH3 CH3CI3 CI3CI4 CI4CH4"/>
    </vehicle>
    <vehicle id="63" depart="6.30">
        <route edges="BU27BU26 BU26BU27 BU27BU28 BU28BU29 BU29BU30 BU30BV30 BV30BW30 BW30BX30 BX30BY30 BY30BZ30 BZ30CA30 CA30CB30 CB30CC30 CC30CD30 CD30CE30 CE30CF30 CF30CG30 CG30CH30 CH30CI30 CI30CH30"/>
    </vehicle>
    <vehicle id="64" depart="6.40">
        <route edges="CB27CB26 CB26CA26 CA26BZ26 BZ26BY26 BY26BX26 BX26BW26 BW26BV26 BV26BU26 BU26BT26 BT26BS26 BS26BR26 BR26BQ26 BQ26BP26 BP26BO26 BO26BN26 BN26BM26 BM26BL26 BL26BK26 BK26BJ26 BJ26BI26 BI26BH26 BH26BG26 BG26BF26 BF26BE26 BE26BD26 BD26BC26 BC26BB26 BB26BA26 BA26AZ26 AZ26AY26 AY26AX26 AX26AW26 AW26AV26 AV26AU26 AU26AT26 AT26AS26 AS26AR26 AR26AQ26 AQ26AP26 AP26AO26 AO26AN26 AN26AM26 AM26AL26 AL26AK26 AK26AJ26 AJ26AI26 AI26AH26 AH26AG26 AG26AF26 AF26AE26 AE26AD26 AD26AC26 AC26AC27 AC27AC28 AC28AC29 AC29AC30 AC30AC1 AC1AC2 AC2AC3 AC3AC4 AC4AC5 AC5AC6 AC6AC7 AC7AC8 AC8AD8 AD8AE8 AE8AF8 AF8AG8 AG8AH8 AH8AI8 AI8AJ8 AJ8AK8 AK8AL8 AL8AK8"/>
    </vehicle>
    <vehicle id="65" depart="6.50">
        <route edges="BW6BV6 BV6BV5 BV5BV4 BV4BV3 BV3BV2 BV2BV1 BV1BW1 BW1BX1 BX1BY1 BY1BZ1 BZ1CA1 CA1CB1 CB1CC1 CC1CD1 CD1CE1 CE1CE30"/>
    </vehicle>
    <vehicle id="66" depart="6.60">
        <route edges="AQ19AR19 AR19AQ19 AQ19AP19 AP19AO19 AO19AN19 AN19AM19 AM19AL19 AL19AK19 AK19AJ19 AJ19AI19 AI19AH19 AH19AG19 AG19AF19 AF19AE19 AE19AD19 AD19AC19 AC19AB19 AB19AB18 AB18AB17 AB17AB16 AB16AB15 AB15AB14 AB14AB13 AB13AB12 AB12AB11 AB11AB10 AB10AB9 AB9AB8 AB8AC8 AC8AD8 AD8AE8 AE8AF8 AF8AG8 AG8AH8 AH8AI8 AI8AJ8 AJ8AK8 AK8AL8 AL8AM8 AM8AN8 AN8AO8 AO8AP8 AP8AQ8 AQ8AR8 AR8AS8 AS8AT8 AT8AU8 AU8AV8 AV8AW8 AW8AX8 AX8AY8 AY8AZ8 AZ8BA8 BA8BB8 BB8BC8 BC8BD8 BD8BE8 BE8BF8 BF8BG8 BG8BH8 BH8BG8"/>
    </vehicle>
    <vehicle id="67" depart="6.70">
        <route edges="CB29CB30 CB30CA30 CA30BZ30 BZ30BY30 BY30BX30 BX30BW30 BW30BV30 BV30BU30 BU30BT30 BT30BS30 BS30BR30 BR30BQ30 BQ30BP30 BP30BO30 BO30BO1 BO1BO2 BO2BO3 BO3BO4 BO4BO5 BO5BO6 BO6BO7 BO7BO8 BO8BO9 BO9BO10 BO10BP10"/>
    </vehicle>
    <vehicle id="68" depart="6.80">
        <route edges="CI18CI19 CI19CH19 CH19CG19 CG19CF19 CF19CE19 CE19CD19 CD19CC19 CC19CB19 CB19CA19 CA19BZ19 BZ19BY19 BY19BX19 BX19BW19 BW19BV19 BV19BU19 BU19BT19 BT19BS19 BS19BR19 BR19BQ19 BQ19BP19 BP19BO19 BO19BN19 BN19BM19 BM19BL19 BL19BK19 BK19BJ19 BJ19BI19 BI19BH19 BH19BG19 BG19BF19 BF19BE19 BE19BD19 BD19BC19 BC19BB19 BB19BA19 BA19AZ19 AZ19AY19 AY19AX19 AX19AW19 AW19AV19 AV19AU19 AU19AT19 AT19AS19 AS19AR19 AR19AQ19 AQ19AP19 AP19AO19 AO19AN19 AN19AM19 AM19AL19 AL19AK19 AK19AJ19 AJ19AI19 AI19AH19 AH19AG19 AG19AF19 AF19AE19 AE19AD19 AD19AC19 AC19AC20 AC20AC21 AC21AC22 AC22AC23 AC23AC24 AC24AC25 AC25AC26 AC26AC27 AC27AC28 AC28AC29 AC29AC30 AC30AC1 AC1AC2 AC2AC3 AC3AD3 AD3AE3 AE3AF3 AF3AG3 AG3AH3 AH3AI3 AI3AJ3 AJ3AK3 AK3AL3 AL3AM3 AM3AN3 AN3AO3 AO3AP3 AP3AQ3 AQ3AR3 AR3AS3 AS3AT3 AT3AU3 AU3AV3 AV3AW3 AW3AX3 AX3AY3 AY3AZ3 AZ3BA3 BA3BB3 BB3BC3 BC3BD3 BD3BE3 BE3BF3 BF3BG3 BG3BH3 BH3BI3 BI3BJ3 BJ3BK3 BK3BL3 BL3BM3 BM3BN3 BN3BO3 BO3BP3 BP3BQ3 BQ3BR3 BR3BS3 BS3BT3 BT3BU3 BU3BV3 BV3BW3 BW3BX3 BX3BY3 BY3BZ3 BZ3CA3 CA3CB3 CB3CC3 CC3CD3 CD3CE3 CE3CD3"/>
    </vehicle>
    <vehicle id="69" depart="6.90">
        <route edges="BT22BT21 BT21BT22 BT22BT23 BT23BT24 BT24BT25 BT25BT26 BT26BT27 BT27BT28 BT28BT29 BT29BT30 BT30BT1 BT1BU1 BU1BV1 BV1BW1 BW1BX1 BX1BY1 BY1BZ1 BZ1CA1 CA1CB1 CB1CC1 CC1CD1 CD1CE1 CE1CF1 CF1CG1 CG1CH1 CH1CI1 CI1CI2"/>
    </vehicle>
    <vehicle id="70" depart="7.00">
        <route edges="BR5BQ5 BQ5BP5 BP5BO5 BO5BN5 BN5BM5 BM5BL5 BL5BK5 BK5BJ5 BJ5BI5 BI5BH5 BH5BG5 BG5BF5 BF5BE5 BE5BD5 BD5BC5 BC5BB5 BB5BA5 BA5AZ5 AZ5AY5 AY5AX5 AX5AW5 AW5AV5 AV5AU5 AU5AT5 AT5AS5 AS5AR5 AR5AQ5 AQ5AP5 AP5AO5 AO5AN5 AN5AM5 AM5AM4 AM4AM3 AM3AM2 AM2AM1 AM1AM30 AM30AL30"/>
    </vehicle>
    <vehicle id="71" depart="7.10">
        <route edges="AF18AF19 AF19AF20 AF20AF21 AF21AG21 AG21AH21 AH21AI21 AI21AJ21 AJ21AK21 AK21AL21 AL21AM21 AM21AN21 AN21AO21 AO21AP21 AP21AQ21 AQ21AR21 AR21AS21 AS21AT21 AT21AU21 AU21AV21 AV21AW21 AW21AX21 AX21AY21 AY21AZ21 AZ21BA21 BA21BB21 BB21BC21 BC21BD21 BD21BE21 BE21BF21 BF21BG21 BG21BH21 BH21BI21 BI21BJ21 BJ21BK21 BK21BL21 BL21BM21 BM21BN21 BN21BO21 BO21BP21 BP21BQ21 BQ21BR21 BR21BS21 BS21BT21 BT21BU21 BU21BV21 BV21BU21"/>
    </vehicle>
    <vehicle id="72" depart="7.20">