<?xml version="1.0" encoding="UTF-8"?>

<!-- generated on 04/01/19 23:18:24 by Eclipse SUMO duarouter Version 1.1.0
<configuration xmlns:xsi="http://www.w3.org/2001/XMLSchema-instance" xsi:noNamespaceSchemaLocation="http://sumo.dlr.de/xsd/duarouterConfiguration.xsd">

    <input>
        <net-file value="net.net.xml"/>
        <route-files value="trips.trips.xml"/>
    </input>

    <output>
        <output-file value="out-30-60-40/./rou2500.rou.xml"/>
        <alternatives-output value="out-30-60-40/./rou2500.rou.alt.xml"/>
    </output>

    <time>
        <begin value="0.0"/>
        <end value="100.0"/>
    </time>

    <report>
        <no-warnings value="true"/>
        <ignore-errors value="true"/>
        <no-step-log value="true"/>
    </report>

</configuration>
-->

<routes xmlns:xsi="http://www.w3.org/2001/XMLSchema-instance" xsi:noNamespaceSchemaLocation="http://sumo.dlr.de/xsd/routes_file.xsd">
    <vehicle id="0" depart="0.00">
        <route edges="BU3BT3 BT3BS3 BS3BR3 BR3BQ3 BQ3BP3 BP3BO3 BO3BN3 BN3BM3 BM3BL3 BL3BK3 BK3BJ3 BJ3BI3 BI3BH3 BH3BG3 BG3BF3 BF3BE3 BE3BD3 BD3BC3 BC3BB3 BB3BA3 BA3AZ3 AZ3AY3 AY3AX3 AX3AW3 AW3AV3 AV3AU3 AU3AT3 AT3AS3 AS3AR3 AR3AQ3 AQ3AP3 AP3AO3 AO3AN3 AN3AM3 AM3AL3 AL3AK3 AK3AJ3 AJ3AI3 AI3AH3 AH3AG3 AG3AF3 AF3AE3 AE3AD3 AD3AC3 AC3AC4 AC4AC5 AC5AC6 AC6AC7 AC7AC8 AC8AC9 AC9AC10 AC10AC11 AC11AC12 AC12AC13 AC13AC14 AC14AC15 AC15AC16 AC16AC17 AC17AD17 AD17AE17 AE17AF17 AF17AG17 AG17AH17 AH17AI17 AI17AJ17 AJ17AK17 AK17AL17 AL17AM17 AM17AN17 AN17AO17 AO17AP17 AP17AQ17 AQ17AR17 AR17AS17 AS17AT17 AT17AU17 AU17AV17 AV17AW17 AW17AX17 AX17AY17 AY17AZ17 AZ17BA17 BA17BA18"/>
    </vehicle>
    <vehicle id="1" depart="0.04">
        <route edges="AG4AG3 AG3AF3 AF3AE3 AE3AD3 AD3AC3 AC3AB3 AB3AB2 AB2AB1 AB1AB30 AB30AB29 AB29AB28 AB28AB27 AB27AB26 AB26AB25 AB25AB24 AB24AB23 AB23AB22 AB22AB21 AB21AC21 AC21AD21 AD21AE21 AE21AF21 AF21AG21 AG21AH21 AH21AI21 AI21AJ21 AJ21AK21 AK21AL21 AL21AM21 AM21AN21 AN21AO21 AO21AP21 AP21AQ21 AQ21AR21 AR21AS21 AS21AT21 AT21AU21 AU21AV21 AV21AW21 AW21AX21 AX21AY21 AY21AZ21 AZ21BA21 BA21BB21 BB21BC21 BC21BD21 BD21BE21 BE21BF21 BF21BG21 BG21BH21 BH21BI21 BI21BJ21 BJ21BK21 BK21BL21"/>
    </vehicle>
    <vehicle id="2" depart="0.08">
        <route edges="BE19BF19 BF19BF18 BF18BF17 BF17BF16 BF16BF15 BF15BG15 BG15BH15 BH15BI15 BI15BJ15 BJ15BK15 BK15BL15 BL15BM15 BM15BN15 BN15BO15 BO15BP15 BP15BQ15 BQ15BR15 BR15BS15 BS15BT15 BT15BU15 BU15BV15 BV15BW15 BW15BX15 BX15BY15 BY15BZ15 BZ15CA15 CA15CB15 CB15CC15 CC15CD15 CD15CE15 CE15CF15 CF15CG15 CG15CH15 CH15CI15"/>
    </vehicle>
    <vehicle id="3" depart="0.12">
        <route edges="AE14AD14 AD14AC14 AC14AB14 AB14AB13 AB13AB12 AB12AB11 AB11AB10 AB10AB9 AB9AB8 AB8AB7 AB7AB6 AB6AB5 AB5AB4 AB4AB3 AB3AB2 AB2AB1 AB1AC1 AC1AD1 AD1AE1 AE1AF1 AF1AG1 AG1AH1 AH1AI1 AI1AI30"/>
    </vehicle>
    <vehicle id="4" depart="0.16">
        <route edges="BY14BY15 BY15BX15 BX15BW15 BW15BV15 BV15BU15 BU15BT15 BT15BS15 BS15BR15 BR15BQ15 BQ15BP15 BP15BO15 BO15BN15 BN15BM15 BM15BL15 BL15BK15 BK15BJ15 BJ15BI15 BI15BH15 BH15BG15 BG15BF15 BF15BE15 BE15BD15 BD15BC15 BC15BB15 BB15BA15 BA15AZ15 AZ15AY15 AY15AX15 AX15AW15 AW15AV15 AV15AU15 AU15AT15 AT15AS15 AS15AR15 AR15AQ15 AQ15AP15 AP15AO15 AO15AN15 AN15AM15 AM15AL15 AL15AK15 AK15AJ15 AJ15AI15 AI15AH15 AH15AG15 AG15AF15 AF15AE15 AE15AD15 AD15AC15 AC15AC16 AC16AC17 AC17AC18 AC18AC19 AC19AC20 AC20AC21 AC21AC22 AC22AC23 AC23AC24 AC24AC25 AC25AC26 AC26AC27 AC27AD27 AD27AE27 AE27AF27 AF27AG27 AG27AH27 AH27AI27 AI27AJ27 AJ27AK27 AK27AL27 AL27AM27 AM27AN27 AN27AO27 AO27AP27 AP27AQ27 AQ27AR27 AR27AS27 AS27AT27 AT27AU27 AU27AV27 AV27AW27 AW27AX27 AX27AY27 AY27AZ27 AZ27BA27 BA27BB27 BB27BC27 BC27BD27 BD27BE27 BE27BF27 BF27BG27 BG27BH27 BH27BI27 BI27BJ27 BJ27BK27 BK27BL27 BL27BM27 BM27BN27"/>
    </vehicle>
    <vehicle id="5" depart="0.20">
        <route edges="AR16AS16 AS16AR16 AR16AQ16 AQ16AP16 AP16AO16 AO16AN16 AN16AM16 AM16AL16 AL16AK16 AK16AJ16 AJ16AI16 AI16AH16 AH16AG16 AG16AF16 AF16AE16 AE16AD16 AD16AC16 AC16AC17 AC17AC18 AC18AC19 AC19AC20 AC20AC21 AC21AC22 AC22AC23 AC23AC24 AC24AC25 AC25AC26 AC26AC27 AC27AD27 AD27AE27 AE27AF27 AF27AG27 AG27AH27 AH27AI27 AI27AJ27 AJ27AK27 AK27AL27 AL27AM27 AM27AN27 AN27AO27 AO27AP27 AP27AQ27 AQ27AR27 AR27AS27 AS27AT27 AT27AU27 AU27AV27 AV27AW27 AW27AX27 AX27AY27 AY27AZ27 AZ27BA27 BA27BB27 BB27BC27 BC27BC26"/>
    </vehicle>
    <vehicle id="6" depart="0.24">
        <route edges="AO6AP6 AP6AO6 AO6AN6 AN6AM6 AM6AL6 AL6AK6 AK6AJ6 AJ6AI6 AI6AH6 AH6AG6 AG6AF6 AF6AE6 AE6AD6 AD6AC6 AC6AB6 AB6AB5 AB5AB4 AB4AB3 AB3AB2 AB2AB1 AB1AB30 AB30AB29 AB29AB28 AB28AB27 AB27AB26 AB26AB25 AB25AB24 AB24AB23 AB23AB22 AB22AB21 AB21AC21 AC21AD21 AD21AC21"/>
    </vehicle>
    <vehicle id="7" depart="0.28">
        <route edges="CC21CC20 CC20CB20 CB20CA20 CA20BZ20 BZ20BY20 BY20BX20 BX20BW20 BW20BV20 BV20BU20 BU20BT20 BT20BS20 BS20BR20 BR20BQ20 BQ20BP20 BP20BO20 BO20BN20 BN20BM20 BM20BL20 BL20BK20 BK20BJ20 BJ20BI20 BI20BH20 BH20BG20 BG20BF20 BF20BE20 BE20BD20 BD20BC20 BC20BB20 BB20BA20 BA20AZ20 AZ20AY20 AY20AX20 AX20AW20 AW20AV20 AV20AU20 AU20AT20 AT20AT19 AT19AT18 AT18AT17 AT17AT16 AT16AT15 AT15AT14 AT14AU14"/>
    </vehicle>
    <vehicle id="8" depart="0.32">
        <route edges="BD7BC7 BC7BB7 BB7BA7 BA7AZ7 AZ7AY7 AY7AX7 AX7AW7 AW7AV7 AV7AU7 AU7AT7 AT7AS7 AS7AR7 AR7AQ7 AQ7AP7 AP7AO7 AO7AN7 AN7AM7 AM7AL7 AL7AK7 AK7AJ7 AJ7AI7 AI7AH7 AH7AG7 AG7AF7 AF7AE7 AE7AD7 AD7AC7 AC7AB7 AB7AB6 AB6AB5 AB5AB4 AB4AB3 AB3AB2 AB2AB1 AB1AB30 AB30AB29 AB29AB28 AB28AB27 AB27AB26 AB26AB25 AB25AB24 AB24AB23 AB23AC23 AC23AD23 AD23AE23 AE23AF23 AF23AG23 AG23AH23 AH23AI23 AI23AJ23 AJ23AK23 AK23AL23 AL23AM23 AM23AN23 AN23AO23 AO23AP23 AP23AQ23 AQ23AR23 AR23AS23 AS23AT23 AT23AU23 AU23AV23 AV23AW23 AW23AX23 AX23AY23 AY23AZ23 AZ23BA23 BA23BB23 BB23BC23 BC23BD23 BD23BE23 BE23BF23 BF23BG23 BG23BH23 BH23BI23 BI23BJ23 BJ23BK23 BK23BL23 BL23BM23 BM23BN23 BN23BO23 BO23BP23 BP23BQ23 BQ23BR23 BR23BS23 BS23BT23 BT23BT24"/>
    </vehicle>
    <vehicle id="9" depart="0.36">
        <route edges="AD22AD21 AD21AC21 AC21AC22 AC22AC23 AC23AC24 AC24AC25 AC25AC26 AC26AC27 AC27AC28 AC28AC29 AC29AC30 AC30AC1 AC1AC2 AC2AC3 AC3AC4 AC4AC5 AC5AD5 AD5AE5 AE5AF5 AF5AG5 AG5AH5 AH5AI5 AI5AJ5 AJ5AK5 AK5AL5 AL5AM5 AM5AN5 AN5AO5 AO5AP5 AP5AQ5 AQ5AR5 AR5AR6"/>
    </vehicle>
    <vehicle id="10" depart="0.40">
        <route edges="AG7AF7 AF7AG7 AG7AG6 AG6AH6 AH6AI6 AI6AJ6 AJ6AK6 AK6AL6 AL6AM6 AM6AN6 AN6AO6 AO6AP6 AP6AQ6 AQ6AR6 AR6AS6 AS6AT6 AT6AU6 AU6AV6 AV6AW6 AW6AX6 AX6AY6 AY6AZ6 AZ6BA6 BA6BB6 BB6BC6 BC6BD6 BD6BE6 BE6BF6 BF6BG6 BG6BH6 BH6BH5"/>
    </vehicle>
    <vehicle id="11" depart="0.44">
        <route edges="BB12BB13 BB13BB14 BB14BB15 BB15BB16 BB16BB17 BB17BB18 BB18BB19 BB19BB20 BB20BC20 BC20BD20 BD20BE20 BE20BF20 BF20BG20 BG20BH20 BH20BI20 BI20BJ20 BJ20BK20 BK20BL20 BL20BM20 BM20BN20 BN20BO20 BO20BP20 BP20BQ20 BQ20BR20 BR20BS20 BS20BT20 BT20BU20 BU20BV20 BV20BW20 BW20BX20 BX20BY20 BY20BZ20 BZ20CA20 CA20CB20 CB20CB19"/>
    </vehicle>
    <vehicle id="12" depart="0.48">
        <route edges="BG13BG12 BG12BF12 BF12BE12 BE12BD12 BD12BC12 BC12BB12 BB12BA12 BA12AZ12 AZ12AY12 AY12AX12 AX12AW12 AW12AV12 AV12AU12 AU12AT12 AT12AS12 AS12AR12 AR12AQ12 AQ12AP12 AP12AO12 AO12AN12 AN12AM12 AM12AL12 AL12AK12 AK12AJ12 AJ12AI12 AI12AH12 AH12AG12 AG12AF12 AF12AE12 AE12AD12 AD12AC12 AC12AB12 AB12AB11 AB11AB10 AB10AB9 AB9AB8 AB8AB7 AB7AB6 AB6AB5 AB5AB4 AB4AB3 AB3AB2 AB2AB1 AB1AB30 AB30AC30 AC30AD30 AD30AE30 AE30AF30 AF30AG30 AG30AH30 AH30AI30 AI30AJ30 AJ30AK30 AK30AL30 AL30AM30 AM30AN30 AN30AO30 AO30AP30 AP30AQ30 AQ30AR30 AR30AS30 AS30AT30 AT30AU30 AU30AV30 AV30AV1"/>
    </vehicle>
    <vehicle id="13" depart="0.52">
        <route edges="AS3AT3 AT3AS3 AS3AR3 AR3AQ3 AQ3AP3 AP3AO3 AO3AN3 AN3AM3 AM3AL3 AL3AK3 AK3AJ3 AJ3AI3 AI3AH3 AH3AG3 AG3AF3 AF3AE3 AE3AD3 AD3AC3 AC3AC4 AC4AC5 AC5AC6 AC6AC7 AC7AC8 AC8AC9 AC9AC10 AC10AC11 AC11AC12 AC12AC13 AC13AC14 AC14AD14 AD14AE14 AE14AF14 AF14AG14 AG14AH14 AH14AI14 AI14AJ14 AJ14AK14 AK14AL14 AL14AM14 AM14AN14 AN14AO14 AO14AP14 AP14AQ14 AQ14AR14 AR14AS14 AS14AT14 AT14AU14 AU14AV14 AV14AW14 AW14AX14 AX14AY14 AY14AZ14 AZ14BA14 BA14BB14 BB14BC14 BC14BD14 BD14BE14 BE14BF14 BF14BG14 BG14BH14 BH14BI14 BI14BJ14 BJ14BK14 BK14BL14 BL14BM14 BM14BN14 BN14BO14 BO14BP14 BP14BQ14 BQ14BR14 BR14BS14 BS14BT14"/>
    </vehicle>
    <vehicle id="14" depart="0.56">
        <route edges="AR19AR20 AR20AQ20 AQ20AP20 AP20AO20 AO20AN20 AN20AM20 AM20AL20 AL20AK20 AK20AJ20 AJ20AI20 AI20AH20 AH20AH21 AH21AH22 AH22AH23 AH23AH24 AH24AG24"/>
    </vehicle>
    <vehicle id="15" depart="0.60">
        <route edges="BS5BS4 BS4BR4 BR4BQ4 BQ4BP4 BP4BO4 BO4BN4 BN4BM4 BM4BL4 BL4BK4 BK4BJ4 BJ4BI4 BI4BH4 BH4BG4 BG4BF4 BF4BE4 BE4BD4 BD4BD3 BD3BD2 BD2BD1 BD1BD30 BD30BD29 BD29BE29"/>
    </vehicle>
    <vehicle id="16" depart="0.64">
        <route edges="BZ25BY25 BY25BX25 BX25BW25 BW25BV25 BV25BU25 BU25BT25 BT25BS25 BS25BR25 BR25BQ25 BQ25BP25 BP25BO25 BO25BO24 BO24BO23 BO23BO22 BO22BO21 BO21BO20 BO20BO19 BO19BO18 BO18BO17 BO17BO18"/>
    </vehicle>
    <vehicle id="17" depart="0.68">
        <route edges="AV30AW30 AW30AW29 AW29AW28 AW28AW27 AW27AW26 AW26AW25 AW25AW24 AW24AX24 AX24AY24 AY24AZ24 AZ24BA24 BA24BA23"/>
    </vehicle>
    <vehicle id="18" depart="0.72">
        <route edges="BX15BX14 BX14BX15 BX15BX16 BX16BX17 BX17BX18 BX18BX19 BX19BY19 BY19BZ19 BZ19CA19 CA19CA20"/>
    </vehicle>
    <vehicle id="19" depart="0.76">
        <route edges="AG30AG29 AG29AG28 AG28AG27 AG27AG26 AG26AG25 AG25AG24 AG24AG23 AG23AH23 AH23AI23 AI23AJ23 AJ23AK23 AK23AL23 AL23AM23 AM23AN23 AN23AO23 AO23AO22"/>
    </vehicle>
    <vehicle id="20" depart="0.80">
        <route edges="CG18CG19 CG19CF19 CF19CE19 CE19CD19 CD19CC19 CC19CB19 CB19CA19 CA19BZ19 BZ19BY19 BY19BX19 BX19BW19 BW19BV19 BV19BU19 BU19BT19 BT19BS19 BS19BR19 BR19BQ19 BQ19BP19 BP19BO19 BO19BN19 BN19BM19 BM19BL19 BL19BK19 BK19BJ19 BJ19BI19 BI19BH19 BH19BG19 BG19BF19 BF19BE19 BE19BD19 BD19BC19 BC19BB19 BB19BA19 BA19AZ19 AZ19AY19 AY19AX19 AX19AW19 AW19AV19 AV19AU19 AU19AT19 AT19AS19 AS19AR19 AR19AQ19 AQ19AP19 AP19AO19 AO19AN19 AN19AM19 AM19AL19 AL19AK19 AK19AJ19 AJ19AI19 AI19AH19 AH19AG19 AG19AF19 AF19AE19 AE19AD19 AD19AC19 AC19AC20 AC20AC21 AC21AC22 AC22AC23 AC23AC24 AC24AB24 AB24AB23"/>
    </vehicle>
    <vehicle id="21" depart="0.84">
        <route edges="AW9AX9 AX9AW9 AW9AV9 AV9AU9 AU9AT9 AT9AS9 AS9AR9 AR9AQ9 AQ9AP9 AP9AO9 AO9AN9 AN9AM9 AM9AL9 AL9AK9 AK9AJ9 AJ9AI9 AI9AH9 AH9AG9 AG9AF9 AF9AE9 AE9AD9 AD9AC9 AC9AB9 AB9AB8 AB8AB7 AB7AB6 AB6AB5 AB5AB4 AB4AB3 AB3AB2 AB2AB1 AB1AB30 AB30AB29 AB29AB28 AB28AB27 AB27AB26 AB26AB25 AB25AC25 AC25AD25 AD25AE25 AE25AF25 AF25AG25 AG25AH25 AH25AI25 AI25AJ25 AJ25AK25 AK25AL25 AL25AM25 AM25AN25 AN25AO25 AO25AP25 AP25AQ25 AQ25AR25 AR25AS25 AS25AT25 AT25AU25 AU25AV25 AV25AW25 AW25AX25 AX25AY25 AY25AZ25 AZ25BA25 BA25BB25 BB25BC25 BC25BD25 BD25BE25 BE25BF25"/>
    </vehicle>
    <vehicle id="22" depart="0.88">
        <route edges="AS8AT8 AT8AT7 AT7AT6 AT6AT5 AT5AT4 AT4AT3 AT3AU3 AU3AV3 AV3AW3 AW3AX3 AX3AY3 AY3AZ3 AZ3BA3 BA3BB3 BB3BC3 BC3BD3 BD3BE3 BE3BF3 BF3BG3 BG3BH3 BH3BI3 BI3BJ3 BJ3BK3 BK3BL3"/>
    </vehicle>
    <vehicle id="23" depart="0.92">
        <route edges="CB19CA19 CA19BZ19 BZ19BY19 BY19BX19 BX19BW19 BW19BV19 BV19BU19 BU19BT19 BT19BS19 BS19BR19 BR19BQ19 BQ19BQ18 BQ18BQ17 BQ17BQ16 BQ16BQ15 BQ15BQ14 BQ14BQ13 BQ13BQ12 BQ12BQ11 BQ11BQ10 BQ10BP10"/>
    </vehicle>
    <vehicle id="24" depart="0.96">
        <route edges="BS7BS8 BS8BS7 BS7BS6 BS6BS5 BS5BS4 BS4BT4 BT4BU4 BU4BV4 BV4BW4 BW4BX4 BX4BY4 BY4BZ4 BZ4CA4 CA4CB4 CB4CC4 CC4CC3"/>
    </vehicle>
    <vehicle id="25" depart="1.00">
        <route edges="BT23BU23 BU23BT23 BT23BS23 BS23BR23 BR23BQ23 BQ23BP23 BP23BO23 BO23BN23 BN23BM23 BM23BL23 BL23BK23 BK23BJ23 BJ23BI23 BI23BH23 BH23BG23 BG23BF23 BF23BE23 BE23BD23 BD23BC23 BC23BB23 BB23BA23 BA23AZ23 AZ23AY23 AY23AX23 AX23AW23 AW23AV23 AV23AU23 AU23AT23 AT23AS23 AS23AR23 AR23AQ23 AQ23AQ24 AQ24AQ25 AQ25AQ26 AQ26AQ27 AQ27AQ28 AQ28AQ29"/>
    </vehicle>
    <vehicle id="26" depart="1.04">
        <route edges="BY2BY1 BY1BX1 BX1BW1 BW1BV1 BV1BU1 BU1BT1 BT1BS1 BS1BR1 BR1BQ1 BQ1BP1 BP1BO1 BO1BN1 BN1BM1 BM1BL1 BL1BK1 BK1BJ1 BJ1BI1 BI1BH1 BH1BG1 BG1BF1 BF1BE1 BE1BD1 BD1BC1 BC1BB1 BB1BA1 BA1AZ1 AZ1AY1 AY1AX1 AX1AW1 AW1AV1 AV1AU1 AU1AT1 AT1AS1 AS1AR1 AR1AQ1 AQ1AP1 AP1AO1 AO1AN1 AN1AM1 AM1AL1 AL1AK1 AK1AJ1 AJ1AI1 AI1AH1 AH1AG1 AG1AF1 AF1AE1 AE1AD1 AD1AC1 AC1AB1 AB1AB30 AB30AB29 AB29AB28 AB28AB27 AB27AB26 AB26AB25 AB25AB24 AB24AB23 AB23AB22 AB22AB21 AB21AB20 AB20AB19 AB19AB18 AB18AC18 AC18AD18 AD18AE18 AE18AF18 AF18AG18 AG18AH18 AH18AI18 AI18AJ18 AJ18AK18 AK18AL18 AL18AM18 AM18AN18 AN18AO18 AO18AP18 AP18AQ18 AQ18AR18 AR18AS18 AS18AT18 AT18AU18 AU18AV18 AV18AW18 AW18AX18 AX18AY18 AY18AZ18 AZ18BA18 BA18BB18 BB18BC18 BC18BD18 BD18BE18 BE18BF18 BF18BG18 BG18BH18 BH18BI18 BI18BJ18 BJ18BK18 BK18BL18 BL18BM18 BM18BN18 BN18BN19"/>
    </vehicle>
    <vehicle id="27" depart="1.08">
        <route edges="BX13BY13 BY13BX13 BX13BW13 BW13BV13 BV13BU13 BU13BT13 BT13BS13 BS13BR13 BR13BQ13 BQ13BP13 BP13BO13 BO13BN13 BN13BM13 BM13BL13 BL13BK13 BK13BJ13 BJ13BI13 BI13BH13 BH13BG13 BG13BF13 BF13BE13 BE13BD13 BD13BC13 BC13BB13 BB13BA13 BA13AZ13 AZ13AY13 AY13AX13 AX13AW13 AW13AV13 AV13AU13 AU13AT13 AT13AS13 AS13AR13 AR13AQ13 AQ13AP13 AP13AO13 AO13AN13 AN13AM13 AM13AL13 AL13AK13 AK13AJ13 AJ13AI13 AI13AH13 AH13AG13 AG13AF13 AF13AE13 AE13AD13 AD13AC13 AC13AC14 AC14AC15 AC15AC16 AC16AC17 AC17AC18 AC18AC19 AC19AC20 AC20AC21 AC21AC22 AC22AC23 AC23AC24 AC24AD24 AD24AE24 AE24AF24 AF24AG24 AG24AH24 AH24AI24 AI24AJ24 AJ24AK24 AK24AL24 AL24AM24 AM24AN24 AN24AO24 AO24AP24 AP24AQ24 AQ24AR24 AR24AS24 AS24AT24 AT24AU24 AU24AV24 AV24AW24 AW24AX24 AX24AY24 AY24AZ24 AZ24BA24 BA24BB24 BB24BC24 BC24BD24 BD24BE24 BE24BF24 BF24BG24 BG24BH24 BH24BI24 BI24BH24"/>
    </vehicle>
    <vehicle id="28" depart="1.12">
        <route edges="AK4AJ4 AJ4AJ5 AJ5AK5 AK5AL5 AL5AM5 AM5AN5 AN5AO5 AO5AP5 AP5AQ5 AQ5AR5 AR5AS5 AS5AT5 AT5AU5 AU5AV5 AV5AW5 AW5AX5 AX5AY5 AY5AZ5 AZ5BA5 BA5BB5 BB5BC5 BC5BD5 BD5BE5 BE5BF5 BF5BG5 BG5BH5 BH5BI5 BI5BJ5 BJ5BK5 BK5BL5 BL5BM5 BM5BN5 BN5BO5 BO5BP5"/>
    </vehicle>
    <vehicle id="29" depart="1.16">
        <route edges="AX10AY10 AY10AX10 AX10AX11 AX11AX12 AX12AX13 AX13AX14 AX14AX15 AX15AX16 AX16AX17 AX17AX18 AX18AX19 AX19AX20 AX20AY20 AY20AZ20 AZ20AZ21"/>
    </vehicle>
    <vehicle id="30" depart="1.20">
        <route edges="BA11BA12 BA12BA11 BA11BA10 BA10BA9 BA9BA8 BA8BB8 BB8BC8 BC8BD8 BD8BE8 BE8BF8 BF8BG8 BG8BH8 BH8BI8 BI8BJ8 BJ8BK8 BK8BL8 BL8BM8 BM8BN8 BN8BO8 BO8BP8 BP8BQ8 BQ8BR8 BR8BS8 BS8BT8 BT8BU8 BU8BV8 BV8BW8 BW8BX8 BX8BY8 BY8BZ8 BZ8CA8 CA8CB8 CB8CC8 CC8CD8 CD8CE8 CE8CF8 CF8CG8 CG8CH8 CH8CG8"/>
    </vehicle>
    <vehicle id="31" depart="1.24">
        <route edges="BQ30BR30 BR30BR1 BR1BR2 BR2BR3 BR3BR4 BR4BR5 BR5BR6 BR6BS6 BS6BT6 BT6BU6 BU6BV6 BV6BW6 BW6BX6 BX6BY6"/>
    </vehicle>
    <vehicle id="32" depart="1.28">
        <route edges="BY17BZ17 BZ17BY17 BY17BX17 BX17BW17 BW17BV17 BV17BU17 BU17BT17 BT17BS17 BS17BR17 BR17BQ17 BQ17BP17 BP17BO17 BO17BN17 BN17BM17 BM17BL17 BL17BK17 BK17BJ17 BJ17BI17 BI17BH17 BH17BG17 BG17BF17 BF17BE17 BE17BD17 BD17BC17 BC17BB17 BB17BA17 BA17AZ17 AZ17AY17 AY17AX17 AX17AW17 AW17AV17 AV17AU17 AU17AT17 AT17AS17 AS17AR17 AR17AQ17 AQ17AP17 AP17AO17 AO17AN17 AN17AM17 AM17AL17 AL17AK17 AK17AJ17 AJ17AI17 AI17AH17 AH17AG17 AG17AF17 AF17AE17 AE17AD17 AD17AC17 AC17AB17 AB17AB16 AB16AB15 AB15AB14 AB14AB13 AB13AB12 AB12AB11 AB11AB10 AB10AB9 AB9AB8 AB8AB7 AB7AB6 AB6AB5 AB5AB4 AB4AC4 AC4AD4 AD4AE4 AE4AF4 AF4AG4 AG4AH4 AH4AI4 AI4AJ4 AJ4AK4 AK4AL4 AL4AM4 AM4AN4 AN4AO4 AO4AP4 AP4AQ4 AQ4AR4"/>
    </vehicle>
    <vehicle id="33" depart="1.32">
        <route edges="AV16AV17 AV17AV16 AV16AV15 AV15AV14 AV14AV13 AV13AV12 AV12AV11 AV11AV10 AV10AV9 AV9AW9 AW9AX9 AX9AY9 AY9AZ9 AZ9BA9 BA9BB9 BB9BC9 BC9BD9 BD9BE9 BE9BF9 BF9BG9 BG9BH9 BH9BI9 BI9BJ9 BJ9BK9 BK9BL9 BL9BM9 BM9BN9 BN9BO9 BO9BP9 BP9BQ9 BQ9BR9 BR9BS9 BS9BT9 BT9BU9 BU9BV9 BV9BV10"/>
    </vehicle>
    <vehicle id="34" depart="1.36">
        <route edges="CE18CE17 CE17CD17 CD17CC17 CC17CB17 CB17CA17 CA17BZ17 BZ17BY17 BY17BX17 BX17BW17 BW17BV17 BV17BU17 BU17BT17 BT17BS17 BS17BR17 BR17BQ17 BQ17BP17 BP17BO17 BO17BN17 BN17BM17 BM17BL17 BL17BK17 BK17BJ17 BJ17BI17 BI17BH17 BH17BG17 BG17BF17 BF17BE17 BE17BD17 BD17BC17 BC17BB17 BB17BA17 BA17AZ17 AZ17AY17 AY17AX17 AX17AW17 AW17AV17 AV17AU17 AU17AT17 AT17AS17 AS17AR17 AR17AQ17 AQ17AP17 AP17AO17 AO17AN17 AN17AN18 AN18AN19 AN19AN20 AN20AM20"/>
    </vehicle>
    <vehicle id="35" depart="1.40">
        <route edges="BO1BP1 BP1BO1 BO1BN1 BN1BM1 BM1BL1 BL1BK1 BK1BJ1 BJ1BI1 BI1BH1 BH1BG1 BG1BF1 BF1BE1 BE1BD1 BD1BC1 BC1BB1 BB1BA1 BA1AZ1 AZ1AY1 AY1AX1 AX1AW1 AW1AV1 AV1AU1 AU1AT1 AT1AS1 AS1AR1 AR1AQ1 AQ1AP1 AP1AO1 AO1AN1 AN1AM1 AM1AL1 AL1AK1 AK1AJ1 AJ1AI1 AI1AH1 AH1AG1 AG1AF1 AF1AE1 AE1AD1 AD1AC1 AC1AB1 AB1AB30 AB30AB29 AB29AB28 AB28AB27 AB27AB26 AB26AB25 AB25AB24 AB24AB23 AB23AB22 AB22AB21 AB21AB20 AB20AC20 AC20AD20 AD20AE20 AE20AF20 AF20AG20 AG20AH20 AH20AI20 AI20AJ20 AJ20AK20 AK20AL20 AL20AM20 AM20AN20 AN20AO20 AO20AP20 AP20AQ20 AQ20AR20 AR20AS20 AS20AT20 AT20AU20 AU20AV20 AV20AW20 AW20AX20 AX20AY20 AY20AZ20 AZ20BA20 BA20BB20 BB20BC20 BC20BD20 BD20BE20 BE20BF20 BF20BG20 BG20BH20 BH20BI20 BI20BJ20 BJ20BK20 BK20BL20 BL20BM20 BM20BN20 BN20BM20"/>
    </vehicle>
    <vehicle id="36" depart="1.44">
        <route edges="BW8BX8 BX8BW8 BW8BV8 BV8BU8 BU8BT8 BT8BS8 BS8BR8 BR8BQ8 BQ8BP8 BP8BO8 BO8BN8 BN8BM8 BM8BL8 BL8BK8 BK8BJ8 BJ8BI8 BI8BH8 BH8BG8 BG8BF8 BF8BE8 BE8BD8 BD8BC8 BC8BB8 BB8BA8 BA8AZ8 AZ8AY8 AY8AX8 AX8AW8 AW8AV8 AV8AU8 AU8AT8 AT8AS8 AS8AR8 AR8AQ8 AQ8AP8 AP8AO8 AO8AN8 AN8AM8 AM8AL8 AL8AK8 AK8AJ8 AJ8AI8 AI8AH8 AH8AG8 AG8AF8 AF8AE8 AE8AD8 AD8AC8 AC8AC9 AC9AC10 AC10AC11 AC11AC12 AC12AC13 AC13AC14 AC14AC15 AC15AC16 AC16AC17 AC17AC18 AC18AC19 AC19AC20 AC20AD20 AD20AE20 AE20AF20 AF20AG20 AG20AH20 AH20AI20 AI20AJ20 AJ20AK20 AK20AL20 AL20AM20 AM20AN20 AN20AO20 AO20AP20 AP20AQ20 AQ20AR20 AR20AS20 AS20AT20 AT20AU20 AU20AV20 AV20AW20 AW20AX20 AX20AY20 AY20AZ20 AZ20BA20 BA20BB20 BB20BC20 BC20BD20 BD20BE20 BE20BF20 BF20BG20 BG20BH20 BH20BI20 BI20BJ20 BJ20BI20"/>
    </vehicle>
    <vehicle id="37" depart="1.48">
        <route edges="BL14BL13 BL13BL14 BL14BL15 BL15BL16 BL16BL17 BL17BL18 BL18BL19 BL19BL20 BL20BM20 BM20BN20 BN20BO20 BO20BP20 BP20BQ20 BQ20BR20 BR20BS20 BS20BT20 BT20BU20 BU20BV20 BV20BW20 BW20BX20 BX20BY20 BY20BZ20 BZ20CA20 CA20CB20 CB20CC20 CC20CD20 CD20CE20 CE20CF20 CF20CG20 CG20CF20"/>
    </vehicle>
    <vehicle id="38" depart="1.52">
        <route edges="CD30CD29 CD29CC29 CC29CB29 CB29CA29 CA29CA28 CA28CA27 CA27CA26 CA26CA25 CA25CA24 CA24CA23 CA23CA22 CA22CA21 CA21CA20 CA20CA19 CA19CB19"/>
    </vehicle>
    <vehicle id="39" depart="1.56">
        <route edges="AQ27AP27 AP27AO27 AO27AN27 AN27AN28 AN28AM28"/>
    </vehicle>
    <vehicle id="40" depart="1.60">
        <route edges="BC4BD4 BD4BD5 BD5BD6 BD6BD7 BD7BD8 BD8BD9 BD9BD10 BD10BD11 BD11BE11 BE11BF11 BF11BG11 BG11BH11 BH11BI11 BI11BJ11 BJ11BK11 BK11BL11 BL11BM11 BM11BN11 BN11BO11 BO11BP11 BP11BQ11 BQ11BR11 BR11BS11 BS11BT11 BT11BU11 BU11BV11 BV11BW11 BW11BX11 BX11BY11 BY11BZ11 BZ11CA11 CA11CB11 CB11CC11 CC11CD11"/>
    </vehicle>
    <vehicle id="41" depart="1.64">
        <route edges="BJ21BI21 BI21BH21 BH21BG21 BG21BF21 BF21BE21 BE21BD21 BD21BC21 BC21BB21 BB21BA21 BA21AZ21 AZ21AY21 AY21AX21 AX21AW21 AW21AV21 AV21AU21 AU21AT21 AT21AS21 AS21AR21 AR21AQ21 AQ21AP21 AP21AO21 AO21AN21 AN21AM21 AM21AL21 AL21AK21 AK21AJ21 AJ21AI21 AI21AH21 AH21AG21 AG21AF21 AF21AE21 AE21AD21 AD21AC21 AC21AC22 AC22AC23 AC23AC24 AC24AC25 AC25AC26 AC26AC27 AC27AC28 AC28AC29 AC29AC30 AC30AC1 AC1AC2 AC2AD2 AD2AE2 AE2AF2 AF2AG2 AG2AH2 AH2AI2 AI2AJ2 AJ2AK2 AK2AL2 AL2AM2 AM2AN2 AN2AO2 AO2AP2 AP2AQ2 AQ2AR2 AR2AS2 AS2AT2 AT2AU2 AU2AV2 AV2AW2 AW2AX2"/>
    </vehicle>
    <vehicle id="42" depart="1.68">
        <route edges="CD14CC14 CC14CB14 CB14CA14 CA14BZ14 BZ14BY14 BY14BX14 BX14BW14 BW14BV14 BV14BU14 BU14BT14 BT14BS14 BS14BS15 BS15BS16 BS16BS17 BS17BS18 BS18BT18"/>
    </vehicle>
    <vehicle id="43" depart="1.72">
        <route edges="BY20BY21 BY21BX21 BX21BW21 BW21BV21 BV21BU21 BU21BT21 BT21BS21 BS21BR21 BR21BQ21 BQ21BP21 BP21BO21 BO21BN21 BN21BM21 BM21BL21 BL21BK21 BK21BJ21 BJ21BI21 BI21BH21 BH21BG21 BG21BF21 BF21BE21 BE21BD21 BD21BC21 BC21BB21 BB21BA21 BA21AZ21 AZ21AY21 AY21AX21 AX21AW21 AW21AW20 AW20AW19 AW19AW18 AW18AW17 AW17AW16 AW16AW15 AW15AX15"/>
    </vehicle>
    <vehicle id="44" depart="1.76">
        <route edges="BV24BV23 BV23BU23 BU23BT23 BT23BS23 BS23BR23 BR23BQ23 BQ23BP23 BP23BO23 BO23BN23 BN23BM23 BM23BL23 BL23BK23 BK23BJ23 BJ23BI23 BI23BH23 BH23BG23 BG23BF23 BF23BE23 BE23BD23 BD23BC23 BC23BB23 BB23BA23 BA23AZ23 AZ23AY23 AY23AX23 AX23AW23 AW23AV23 AV23AU23 AU23AT23 AT23AS23 AS23AR23 AR23AQ23 AQ23AP23 AP23AO23 AO23AN23 AN23AM23 AM23AL23 AL23AK23 AK23AJ23 AJ23AI23 AI23AH23 AH23AG23 AG23AF23 AF23AE23 AE23AD23 AD23AC23 AC23AB23 AB23AB22 AB22AB21 AB21AB20 AB20AB19 AB19AB18 AB18AB17 AB17AB16 AB16AB15 AB15AB14 AB14AB13 AB13AB12 AB12AB11 AB11AB12"/>
    </vehicle>
    <vehicle id="45" depart="1.80">
        <route edges="BU18BU19 BU19BT19 BT19BS19 BS19BR19 BR19BQ19 BQ19BP19 BP19BO19 BO19BN19 BN19BM19 BM19BL19 BL19BK19 BK19BJ19 BJ19BI19 BI19BH19 BH19BG19 BG19BF19 BF19BE19 BE19BD19 BD19BC19 BC19BB19 BB19BA19 BA19AZ19 AZ19AY19 AY19AX19 AX19AW19 AW19AV19 AV19AU19 AU19AT19 AT19AS19 AS19AS18 AS18AS17 AS17AS16 AS16AS17"/>
    </vehicle>
    <vehicle id="46" depart="1.84">
        <route edges="CI8CH8 CH8CG8 CG8CF8 CF8CE8 CE8CD8 CD8CC8 CC8CB8 CB8CA8 CA8BZ8 BZ8BY8 BY8BY7"/>
    </vehicle>
    <vehicle id="47" depart="1.88">
        <route edges="BC4BD4 BD4BC4 BC4BB4 BB4BA4 BA4AZ4 AZ4AY4 AY4AX4 AX4AW4 AW4AV4 AV4AU4 AU4AT4 AT4AS4 AS4AR4 AR4AQ4 AQ4AP4 AP4AO4 AO4AN4 AN4AM4 AM4AL4 AL4AK4 AK4AJ4 AJ4AI4 AI4AH4 AH4AG4 AG4AF4 AF4AF5 AF5AF6 AF6AF7"/>
    </vehicle>
    <vehicle id="48" depart="1.92">
        <route edges="AK24AL24 AL24AL23 AL23AL22 AL22AL21 AL21AL20 AL20AL19 AL19AL18 AL18AL17 AL17AL16 AL16AL15 AL15AL14 AL14AL15"/>
    </vehicle>
    <vehicle id="49" depart="1.96">
        <route edges="BI29BJ29 BJ29BI29 BI29BH29 BH29BG29 BG29BF29 BF29BE29 BE29BD29 BD29BC29 BC29BB29 BB29BA29 BA29AZ29 AZ29AY29 AY29AX29 AX29AW29 AW29AV29 AV29AU29 AU29AT29 AT29AS29 AS29AR29 AR29AQ29 AQ29AP29 AP29AO29 AO29AN29 AN29AM29 AM29AL29 AL29AK29 AK29AJ29 AJ29AI29 AI29AH29 AH29AH30 AH30AH1 AH1AH2 AH2AG2"/>
    </vehicle>
    <vehicle id="50" depart="2.00">
        <route edges="BW7BW6 BW6BV6 BV6BU6 BU6BT6 BT6BS6 BS6BR6 BR6BQ6 BQ6BP6 BP6BO6 BO6BN6 BN6BM6 BM6BL6 BL6BK6 BK6BJ6 BJ6BI6 BI6BH6 BH6BG6 BG6BF6 BF6BE6 BE6BD6 BD6BD7 BD7BD8 BD8BD9 BD9BD10 BD10BD11 BD11BD12 BD12BD13 BD13BD14 BD14BD15 BD15BC15"/>
    </vehicle>
    <vehicle id="51" depart="2.04">
        <route edges="BA17AZ17 AZ17AY17 AY17AX17 AX17AW17 AW17AV17 AV17AU17 AU17AT17 AT17AS17 AS17AR17 AR17AQ17 AQ17AQ16 AQ16AQ15 AQ15AQ14 AQ14AQ13 AQ13AQ12 AQ12AQ11 AQ11AQ10 AQ10AQ9 AQ9AQ8 AQ8AQ7 AQ7AP7"/>
    </vehicle>
    <vehicle id="52" depart="2.08">
        <route edges="AX21AW21 AW21AV21 AV21AU21 AU21AT21 AT21AS21 AS21AR21 AR21AR20 AR20AR21"/>
    </vehicle>
    <vehicle id="53" depart="2.12">
        <route edges="AC1AB1 AB1AB30 AB30AB29 AB29AB28 AB28AB27 AB27AB26 AB26AB25 AB25AC25 AC25AD25 AD25AE25 AE25AF25 AF25AG25 AG25AH25 AH25AI25 AI25AJ25 AJ25AK25 AK25AJ25"/>
    </vehicle>
    <vehicle id="54" depart="2.16">
        <route edges="BZ1CA1 CA1BZ1 BZ1BY1 BY1BX1 BX1BW1 BW1BV1 BV1BU1 BU1BT1 BT1BS1 BS1BR1 BR1BQ1 BQ1BP1 BP1BO1 BO1BN1 BN1BM1 BM1BL1 BL1BK1 BK1BK2 BK2BK3"/>
    </vehicle>
    <vehicle id="55" depart="2.20">
        <route edges="CG11CH11 CH11CG11 CG11CF11 CF11CE11 CE11CD11 CD11CC11 CC11CB11 CB11CA11 CA11BZ11 BZ11BY11 BY11BX11 BX11BW11 BW11BV11 BV11BU11 BU11BT11 BT11BS11 BS11BR11 BR11BQ11 BQ11BP11 BP11BO11 BO11BN11 BN11BM11 BM11BL11 BL11BK11 BK11BJ11 BJ11BI11 BI11BH11 BH11BG11 BG11BF11 BF11BE11 BE11BD11 BD11BC11 BC11BB11 BB11BA11 BA11AZ11 AZ11AY11 AY11AX11 AX11AW11 AW11AV11 AV11AU11 AU11AT11 AT11AS11 AS11AR11 AR11AQ11 AQ11AP11 AP11AO11 AO11AN11 AN11AM11 AM11AL11 AL11AK11 AK11AJ11 AJ11AI11 AI11AH11 AH11AG11 AG11AF11 AF11AE11 AE11AD11 AD11AC11 AC11AC10 AC10AC9 AC9AC8 AC8AC7 AC7AC6 AC6AC5 AC5AC4 AC4AC3 AC3AC2 AC2AC1 AC1AD1"/>
    </vehicle>
    <vehicle id="56" depart="2.24">
        <route edges="CD21CD22 CD22CC22 CC22CB22 CB22CA22 CA22BZ22 BZ22BY22 BY22BX22 BX22BW22 BW22BV22 BV22BU22 BU22BT22 BT22BS22 BS22BR22 BR22BQ22 BQ22BP22 BP22BO22 BO22BN22 BN22BM22 BM22BL22 BL22BK22 BK22BK21 BK21BK20 BK20BK19 BK19BK18 BK18BK17 BK17BK16 BK16BK15 BK15BK14 BK14BK13 BK13BK12 BK12BJ12"/>
    </vehicle>
    <vehicle id="57" depart="2.28">
        <route edges="AM23AM24 AM24AM25 AM25AN25 AN25AO25 AO25AP25 AP25AQ25 AQ25AR25 AR25AS25 AS25AT25 AT25AU25 AU25AV25 AV25AW25 AW25AX25 AX25AY25 AY25AZ25 AZ25BA25 BA25BB25 BB25BC25 BC25BD25 BD25BE25 BE25BF25 BF25BG25 BG25BH25 BH25BI25 BI25BJ25 BJ25BK25 BK25BL25 BL25BM25 BM25BN25 BN25BO25 BO25BP25 BP25BQ25 BQ25BR25 BR25BS25 BS25BT25 BT25BU25 BU25BV25 BV25BW25 BW25BW26"/>
    </vehicle>
    <vehicle id="58" depart="2.32">
        <route edges="BA7AZ7 AZ7AZ8 AZ8AZ9 AZ9BA9 BA9BB9 BB9BC9 BC9BD9 BD9BE9 BE9BF9 BF9BG9 BG9BH9 BH9BI9 BI9BJ9 BJ9BJ10"/>
    </vehicle>
    <vehicle id="59" depart="2.36">
        <route edges="AE14AF14 AF14AE14 AE14AD14 AD14AC14 AC14AC15 AC15AC16 AC16AC17 AC17AC18 AC18AC19 AC19AC20 AC20AC21 AC21AC22 AC22AC23 AC23AC24 AC24AC25 AC25AC26 AC26AC27 AC27AC28 AC28AD28 AD28AE28 AE28AF28 AF28AG28 AG28AH28 AH28AI28 AI28AJ28 AJ28AK28"/>
    </vehicle>
    <vehicle id="60" depart="2.40">
        <route edges="AT1AS1 AS1AS2 AS2AS3 AS3AS4 AS4AS5 AS5AS6 AS6AS7 AS7AS8 AS8AT8 AT8AU8 AU8AV8 AV8AW8 AW8AX8 AX8AY8 AY8AZ8 AZ8BA8 BA8BB8 BB8BC8 BC8BD8 BD8BE8 BE8BF8 BF8BG8 BG8BH8 BH8BI8 BI8BJ8 BJ8BK8 BK8BL8 BL8BM8 BM8BN8 BN8BO8 BO8BP8 BP8BQ8 BQ8BR8 BR8BS8 BS8BT8 BT8BU8 BU8BV8 BV8BW8 BW8BW9"/>
    </vehicle>
    <vehicle id="61" depart="2.44">
        <route edges="BH20BH21 BH21BG21 BG21BF21 BF21BE21 BE21BD21 BD21BC21 BC21BB21 BB21BA21 BA21AZ21 AZ21AY21 AY21AX21 AX21AW21 AW21AV21 AV21AU21 AU21AT21 AT21AS21 AS21AR21 AR21AQ21 AQ21AP21 AP21AO21 AO21AN21 AN21AM21 AM21AM20 AM20AM19 AM19AM18"/>
    </vehicle>
    <vehicle id="62" depart="2.48">
        <route edges="AC28AB28 AB28AB29 AB29AB30 AB30AB1 AB1AB2 AB2AB3 AB3AB4 AB4AB5 AB5AB6 AB6AB7 AB7AB8 AB8AB9 AB9AB10 AB10AB11 AB11AC11 AC11AD11 AD11AE11 AE11AF11 AF11AG11 AG11AH11 AH11AI11 AI11AJ11 AJ11AK11 AK11AL11 AL11AM11 AM11AN11 AN11AO11 AO11AP11 AP11AQ11 AQ11AR11 AR11AS11 AS11AT11 AT11AU11 AU11AV11 AV11AW11 AW11AX11 AX11AY11 AY11AZ11 AZ11BA11 BA11BB11 BB11BC11 BC11BD11 BD11BE11 BE11BF11 BF11BG11 BG11BH11 BH11BI11 BI11BJ11 BJ11BK11 BK11BL11 BL11BM11 BM11BL11"/>
    </vehicle>
    <vehicle id="63" depart="2.52">
        <route edges="CF6CG6 CG6CF6 CF6CE6 CE6CD6 CD6CC6 CC6CB6 CB6CA6 CA6BZ6 BZ6BY6 BY6BX6 BX6BW6 BW6BV6 BV6BU6 BU6BT6 BT6BS6 BS6BR6 BR6BQ6 BQ6BP6 BP6BO6 BO6BN6 BN6BM6 BM6BL6 BL6BK6 BK6BJ6 BJ6BI6 BI6BH6 BH6BG6 BG6BF6 BF6BE6 BE6BD6 BD6BC6 BC6BB6 BB6BA6 BA6AZ6 AZ6AY6 AY6AX6 AX6AW6 AW6AV6 AV6AU6 AU6AT6 AT6AS6 AS6AR6 AR6AQ6 AQ6AP6 AP6AO6 AO6AN6 AN6AM6 AM6AL6 AL6AK6 AK6AJ6 AJ6AI6 AI6AH6 AH6AG6 AG6AF6 AF6AE6 AE6AD6 AD6AC6 AC6AC7 AC7AC8 AC8AC9 AC9AC10 AC10AC11 AC11AC12 AC12AC13 AC13AC14 AC14AC15 AC15AC16 AC16AC17 AC17AC18 AC18AC19 AC19AC20 AC20AD20 AD20AE20 AE20AF20 AF20AG20 AG20AH20 AH20AI20 AI20AJ20 AJ20AK20 AK20AL20 AL20AL21"/>
    </vehicle>
    <vehicle id="64" depart="2.56">
        <route edges="BV13BW13 BW13BV13 BV13BU13 BU13BT13 BT13BS13 BS13BR13 BR13BQ13 BQ13BP13 BP13BO13 BO13BN13 BN13BM13 BM13BL13 BL13BK13 BK13BJ13 BJ13BI13 BI13BH13 BH13BH12 BH12BH11 BH11BH10 BH10BH9 BH9BH8 BH8BH7 BH7BG7"/>
    </vehicle>
    <vehicle id="65" depart="2.60">
        <route edges="CD1CC1 CC1CB1 CB1CA1 CA1BZ1 BZ1BY1 BY1BX1 BX1BW1 BW1BV1 BV1BU1 BU1BT1 BT1BS1 BS1BR1 BR1BQ1 BQ1BP1 BP1BO1 BO1BN1 BN1BM1 BM1BL1 BL1BK1 BK1BJ1 BJ1BI1 BI1BH1 BH1BG1 BG1BF1 BF1BE1 BE1BE30 BE30BE29 BE29BE28 BE28BE27 BE27BE26 BE26BE25 BE25BE24 BE24BE25"/>
    </vehicle>
    <vehicle id="66" depart="2.64">
        <route edges="BS27BS28 BS28BR28 BR28BQ28 BQ28BP28 BP28BO28 BO28BN28 BN28BM28 BM28BL28 BL28BK28 BK28BJ28 BJ28BI28 BI28BH28 BH28BG28 BG28BF28 BF28BE28 BE28BD28 BD28BC28 BC28BB28 BB28BA28 BA28AZ28 AZ28AY28 AY28AX28 AX28AW28 AW28AV28 AV28AU28 AU28AT28 AT28AS28 AS28AR28 AR28AQ28 AQ28AP28 AP28AO28 AO28AN28 AN28AM28 AM28AL28 AL28AK28 AK28AJ28 AJ28AI28 AI28AH28 AH28AG28 AG28AF28 AF28AE28 AE28AD28 AD28AC28 AC28AB28 AB28AB27 AB27AB26 AB26AB25 AB25AB24 AB24AB23 AB23AB22 AB22AB21 AB21AB20 AB20AB19 AB19AB18 AB18AB17 AB17AB16 AB16AB15 AB15AB14 AB14AC14 AC14AD14 AD14AE14 AE14AF14 AF14AG14 AG14AH14 AH14AI14 AI14AJ14 AJ14AK14 AK14AL14 AL14AM14 AM14AN14 AN14AO14 AO14AP14 AP14AQ14 AQ14AR14 AR14AS14 AS14AT14 AT14AU14 AU14AV14 AV14AW14 AW14AX14 AX14AY14 AY14AZ14 AZ14BA14 BA14BB14 BB14BC14 BC14BD14 BD14BE14 BE14BF14 BF14BG14 BG14BH14 BH14BI14 BI14BJ14 BJ14BK14 BK14BL14 BL14BM14 BM14BN14 BN14BO14 BO14BP14 BP14BQ14 BQ14BQ15"/>
    </vehicle>
    <vehicle id="67" depart="2.68">
        <route edges="AF4AF5 AF5AE5 AE5AD5 AD5AC5 AC5AC6 AC6AC7 AC7AC8 AC8AC9 AC9AC10 AC10AC11 AC11AC12 AC12AC13 AC13AC14 AC14AC15 AC15AC16 AC16AC17 AC17AC18 AC18AD18 AD18AE18 AE18AF18 AF18AG18 AG18AH18 AH18AI18 AI18AJ18 AJ18AK18 AK18AL18 AL18AM18 AM18AN18 AN18AO18 AO18AP18 AP18AQ18 AQ18AR18 AR18AS18 AS18AT18 AT18AU18 AU18AV18 AV18AW18 AW18AX18 AX18AY18 AY18AZ18 AZ18BA18 BA18BB18 BB18BC18 BC18BD18 BD18BD17"/>
    </vehicle>
    <vehicle id="68" depart="2.72">
        <route edges="AS5AR5 AR5AR6 AR6AS6 AS6AT6 AT6AU6 AU6AV6 AV6AW6 AW6AX6 AX6AY6 AY6AZ6 AZ6BA6 BA6BB6 BB6BC6 BC6BD6 BD6BE6 BE6BF6 BF6BG6 BG6BH6 BH6BI6 BI6BJ6 BJ6BK6 BK6BL6 BL6BM6 BM6BN6 BN6BO6 BO6BP6 BP6BQ6 BQ6BR6 BR6BQ6"/>
    </vehicle>
    <vehicle id="69" depart="2.76">