<?xml version="1.0" encoding="UTF-8"?>

<!-- generated on 04/01/19 23:18:10 by Eclipse SUMO duarouter Version 1.1.0
<configuration xmlns:xsi="http://www.w3.org/2001/XMLSchema-instance" xsi:noNamespaceSchemaLocation="http://sumo.dlr.de/xsd/duarouterConfiguration.xsd">

    <input>
        <net-file value="net.net.xml"/>
        <route-files value="trips.trips.xml"/>
    </input>

    <output>
        <output-file value="out-30-60-40/./rou250.rou.xml"/>
        <alternatives-output value="out-30-60-40/./rou250.rou.alt.xml"/>
    </output>

    <time>
        <begin value="0.0"/>
        <end value="100.0"/>
    </time>

    <report>
        <no-warnings value="true"/>
        <ignore-errors value="true"/>
        <no-step-log value="true"/>
    </report>

</configuration>
-->

<routes xmlns:xsi="http://www.w3.org/2001/XMLSchema-instance" xsi:noNamespaceSchemaLocation="http://sumo.dlr.de/xsd/routes_file.xsd">
    <vehicle id="0" depart="0.00">
        <route edges="AK21AL21 AL21AK21 AK21AJ21 AJ21AI21 AI21AH21 AH21AG21 AG21AF21 AF21AE21 AE21AD21 AD21AC21 AC21AB21 AB21AB20 AB20AB19 AB19AB18 AB18AB17 AB17AB16 AB16AB15 AB15AB14 AB14AB13 AB13AB12 AB12AB11 AB11AB10 AB10AB9 AB9AB8 AB8AB7 AB7AB6 AB6AC6 AC6AD6 AD6AE6 AE6AF6 AF6AG6 AG6AH6 AH6AI6 AI6AJ6 AJ6AK6 AK6AL6 AL6AM6 AM6AN6 AN6AO6 AO6AP6 AP6AQ6 AQ6AR6 AR6AS6 AS6AT6 AT6AU6 AU6AV6 AV6AW6 AW6AX6 AX6AY6 AY6AZ6 AZ6BA6 BA6BB6 BB6BC6 BC6BD6 BD6BC6"/>
    </vehicle>
    <vehicle id="1" depart="0.40">
        <route edges="AR17AS17 AS17AS18 AS18AS19 AS19AS20 AS20AS21 AS21AS22 AS22AS23 AS23AS24 AS24AT24 AT24AU24 AU24AV24 AV24AU24"/>
    </vehicle>
    <vehicle id="2" depart="0.80">
        <route edges="BU17BU18 BU18BT18 BT18BS18 BS18BR18 BR18BQ18 BQ18BP18 BP18BO18 BO18BN18 BN18BM18 BM18BL18 BL18BK18 BK18BJ18 BJ18BI18 BI18BH18 BH18BG18 BG18BF18 BF18BE18 BE18BD18 BD18BC18 BC18BB18 BB18BB19 BB19BB20 BB20BB21 BB21BB22 BB22BB23 BB23BB24 BB24BC24"/>
    </vehicle>
    <vehicle id="3" depart="1.20">
        <route edges="BI14BI15 BI15BH15 BH15BG15 BG15BF15 BF15BE15 BE15BD15 BD15BC15 BC15BB15 BB15BA15 BA15AZ15 AZ15AY15 AY15AX15 AX15AW15 AW15AV15 AV15AU15 AU15AT15 AT15AS15 AS15AR15 AR15AQ15 AQ15AP15 AP15AO15 AO15AN15 AN15AM15 AM15AL15 AL15AK15 AK15AJ15 AJ15AI15 AI15AH15 AH15AG15 AG15AF15 AF15AE15 AE15AD15 AD15AC15 AC15AB15 AB15AB14 AB14AB13 AB13AB12 AB12AB11 AB11AB10 AB10AB9 AB9AB8 AB8AB7 AB7AB6 AB6AB5 AB5AB4 AB4AB3 AB3AB2 AB2AB1 AB1AB30 AB30AC30 AC30AD30 AD30AE30 AE30AF30 AF30AG30 AG30AH30 AH30AI30 AI30AJ30 AJ30AK30 AK30AL30 AL30AM30 AM30AN30 AN30AO30 AO30AP30 AP30AQ30 AQ30AR30 AR30AS30 AS30AT30 AT30AU30 AU30AV30 AV30AW30 AW30AV30"/>
    </vehicle>
    <vehicle id="4" depart="1.60">
        <route edges="CI1CI2 CI2CH2 CH2CG2 CG2CF2 CF2CE2 CE2CD2 CD2CC2 CC2CB2 CB2CA2 CA2BZ2 BZ2BY2 BY2BX2 BX2BW2 BW2BV2 BV2BU2 BU2BT2 BT2BS2 BS2BR2 BR2BQ2 BQ2BP2 BP2BO2 BO2BN2 BN2BM2 BM2BL2 BL2BL3 BL3BL4 BL4BL5 BL5BL6 BL6BL7 BL7BL8 BL8BL9 BL9BL10 BL10BL11 BL11BL12"/>
    </vehicle>
    <vehicle id="5" depart="2.00">
        <route edges="BT30BT1 BT1BS1 BS1BR1 BR1BQ1 BQ1BP1 BP1BO1 BO1BN1 BN1BM1 BM1BL1 BL1BK1 BK1BJ1 BJ1BI1 BI1BH1 BH1BG1 BG1BF1 BF1BE1 BE1BD1 BD1BC1 BC1BB1 BB1BA1 BA1AZ1 AZ1AY1 AY1AX1 AX1AW1 AW1AV1 AV1AU1 AU1AT1 AT1AS1 AS1AR1 AR1AQ1 AQ1AP1 AP1AO1 AO1AN1 AN1AM1 AM1AL1 AL1AK1 AK1AJ1 AJ1AI1 AI1AH1 AH1AG1 AG1AF1 AF1AE1 AE1AD1 AD1AC1 AC1AB1 AB1AB30 AB30AB29 AB29AB28 AB28AB27 AB27AB26 AB26AB25 AB25AB24 AB24AB23 AB23AB22 AB22AB21 AB21AB20 AB20AB19 AB19AB18 AB18AB17 AB17AC17 AC17AD17 AD17AE17 AE17AF17 AF17AG17 AG17AH17 AH17AI17 AI17AH17"/>
    </vehicle>
    <vehicle id="6" depart="2.40">
        <route edges="BV23BV22 BV22BU22 BU22BT22 BT22BS22 BS22BR22 BR22BQ22 BQ22BP22 BP22BO22 BO22BN22 BN22BM22 BM22BL22 BL22BK22 BK22BJ22 BJ22BJ23 BJ23BJ24 BJ24BJ25 BJ25BJ26 BJ26BJ27 BJ27BI27"/>
    </vehicle>
    <vehicle id="7" depart="2.80">
        <route edges="AE10AE9 AE9AE8 AE8AE7 AE7AF7 AF7AG7 AG7AH7 AH7AI7 AI7AJ7 AJ7AK7 AK7AL7 AL7AM7 AM7AN7 AN7AO7 AO7AP7 AP7AQ7 AQ7AR7 AR7AS7 AS7AT7 AT7AU7 AU7AV7 AV7AW7 AW7AX7 AX7AY7 AY7AZ7 AZ7BA7 BA7BB7 BB7BC7 BC7BD7 BD7BE7 BE7BF7 BF7BG7 BG7BH7 BH7BI7 BI7BJ7 BJ7BK7 BK7BL7 BL7BM7 BM7BN7 BN7BO7 BO7BP7 BP7BQ7 BQ7BR7 BR7BS7 BS7BT7 BT7BU7 BU7BV7 BV7BW7 BW7BX7 BX7BX6"/>
    </vehicle>
    <vehicle id="8" depart="3.20">
        <route edges="CE9CF9 CF9CE9 CE9CD9 CD9CC9 CC9CB9 CB9CA9 CA9BZ9 BZ9BY9 BY9BX9 BX9BW9 BW9BV9 BV9BU9 BU9BT9 BT9BS9 BS9BR9 BR9BQ9 BQ9BP9 BP9BO9 BO9BN9 BN9BM9 BM9BL9 BL9BL8 BL8BL7 BL7BL6 BL6BL5 BL5BL4 BL4BL3 BL3BL2"/>
    </vehicle>
    <vehicle id="9" depart="3.60">
        <route edges="AN7AM7 AM7AL7 AL7AK7 AK7AJ7 AJ7AI7 AI7AH7 AH7AG7 AG7AF7 AF7AE7 AE7AD7 AD7AC7 AC7AB7 AB7AB6 AB6AB5 AB5AB4 AB4AB3 AB3AB2 AB2AB1 AB1AB30 AB30AB29 AB29AB28 AB28AB27 AB27AB26 AB26AB25 AB25AB24 AB24AB23 AB23AB22 AB22AC22 AC22AD22 AD22AE22 AE22AF22 AF22AG22 AG22AH22 AH22AI22 AI22AJ22 AJ22AK22 AK22AL22 AL22AM22 AM22AN22 AN22AO22 AO22AP22 AP22AQ22 AQ22AR22 AR22AS22 AS22AT22 AT22AU22 AU22AV22 AV22AW22 AW22AX22 AX22AY22 AY22AZ22 AZ22BA22 BA22AZ22"/>
    </vehicle>
    <vehicle id="10" depart="4.00">
        <route edges="BX9BX10 BX10BW10 BW10BV10 BV10BU10 BU10BT10 BT10BS10 BS10BR10 BR10BQ10 BQ10BP10 BP10BO10 BO10BN10 BN10BM10 BM10BL10 BL10BK10 BK10BJ10 BJ10BI10 BI10BH10 BH10BG10 BG10BF10 BF10BE10 BE10BD10 BD10BC10 BC10BB10 BB10BA10 BA10AZ10 AZ10AY10 AY10AX10 AX10AW10 AW10AV10 AV10AU10 AU10AT10 AT10AS10 AS10AR10 AR10AQ10 AQ10AP10 AP10AO10 AO10AN10 AN10AM10 AM10AL10 AL10AK10 AK10AJ10 AJ10AI10 AI10AH10 AH10AG10 AG10AF10 AF10AE10 AE10AD10 AD10AC10 AC10AB10 AB10AB9 AB9AB8 AB8AB7 AB7AB6 AB6AB5 AB5AB4 AB4AB3 AB3AB2 AB2AB1 AB1AB30 AB30AB29 AB29AB28 AB28AB27 AB27AC27 AC27AD27 AD27AE27 AE27AF27 AF27AG27 AG27AH27 AH27AI27 AI27AJ27 AJ27AK27 AK27AL27 AL27AM27"/>
    </vehicle>
    <vehicle id="11" depart="4.40">
        <route edges="CA28CA27 CA27BZ27 BZ27BY27 BY27BX27 BX27BW27 BW27BV27 BV27BU27 BU27BT27 BT27BS27 BS27BR27 BR27BQ27 BQ27BP27 BP27BO27 BO27BN27 BN27BM27 BM27BL27 BL27BK27 BK27BJ27 BJ27BI27 BI27BH27 BH27BG27 BG27BF27 BF27BE27 BE27BD27 BD27BC27 BC27BB27 BB27BA27 BA27AZ27 AZ27AY27 AY27AX27 AX27AW27 AW27AV27 AV27AU27 AU27AT27 AT27AS27 AS27AR27 AR27AQ27 AQ27AP27 AP27AO27 AO27AN27 AN27AM27 AM27AL27 AL27AK27 AK27AJ27 AJ27AI27 AI27AI26 AI26AH26"/>
    </vehicle>
    <vehicle id="12" depart="4.80">
        <route edges="BF7BF6 BF6BF7 BF7BF8 BF8BF9 BF9BF10 BF10BF11 BF11BF12 BF12BF13 BF13BF14 BF14BF15 BF15BF16 BF16BG16 BG16BH16 BH16BI16 BI16BJ16 BJ16BK16 BK16BL16 BL16BM16 BM16BN16 BN16BO16 BO16BP16 BP16BQ16 BQ16BR16 BR16BS16 BS16BT16 BT16BU16 BU16BV16 BV16BW16 BW16BX16 BX16BX17"/>
    </vehicle>
    <vehicle id="13" depart="5.20">
        <route edges="CC28CB28 CB28CA28 CA28BZ28 BZ28BY28 BY28BX28 BX28BW28 BW28BV28 BV28BU28 BU28BT28 BT28BS28 BS28BR28 BR28BQ28 BQ28BP28 BP28BO28 BO28BN28 BN28BM28 BM28BL28 BL28BK28 BK28BJ28 BJ28BI28 BI28BH28 BH28BG28 BG28BF28 BF28BE28 BE28BD28 BD28BC28 BC28BB28 BB28BA28 BA28AZ28 AZ28AY28 AY28AX28 AX28AW28 AW28AV28 AV28AU28 AU28AT28 AT28AS28 AS28AR28 AR28AQ28 AQ28AP28 AP28AO28 AO28AN28 AN28AM28 AM28AL28 AL28AK28 AK28AJ28 AJ28AI28 AI28AH28 AH28AG28 AG28AF28 AF28AE28 AE28AD28 AD28AC28 AC28AC29 AC29AC30 AC30AC1 AC1AC2 AC2AC3 AC3AC4 AC4AC5 AC5AC6 AC6AC7 AC7AC8 AC8AC9 AC9AC10 AC10AC11 AC11AD11 AD11AE11 AE11AF11 AF11AG11 AG11AH11 AH11AI11 AI11AJ11 AJ11AK11 AK11AL11 AL11AM11 AM11AN11 AN11AO11 AO11AP11 AP11AQ11 AQ11AR11 AR11AS11 AS11AT11 AT11AU11 AU11AV11 AV11AW11 AW11AX11 AX11AY11 AY11AZ11 AZ11BA11 BA11BB11 BB11BC11 BC11BD11 BD11BE11 BE11BF11 BF11BG11 BG11BH11 BH11BI11 BI11BJ11 BJ11BK11 BK11BL11 BL11BM11 BM11BN11 BN11BO11 BO11BP11 BP11BQ11 BQ11BR11 BR11BS11 BS11BT11 BT11BU11 BU11BV11 BV11BW11 BW11BX11 BX11BY11 BY11BX11"/>
    </vehicle>
    <vehicle id="14" depart="5.60">
        <route edges="BE8BE9 BE9BD9 BD9BC9 BC9BB9 BB9BA9 BA9AZ9 AZ9AY9 AY9AX9 AX9AW9 AW9AV9 AV9AU9 AU9AT9 AT9AS9 AS9AR9 AR9AQ9 AQ9AP9 AP9AO9 AO9AN9 AN9AM9 AM9AL9 AL9AK9 AK9AJ9 AJ9AI9 AI9AH9 AH9AG9 AG9AF9 AF9AE9 AE9AD9 AD9AC9 AC9AB9 AB9AB8 AB8AB7 AB7AB6 AB6AB5 AB5AB4 AB4AB3 AB3AB2 AB2AB1 AB1AB30 AB30AB29 AB29AB28 AB28AB27 AB27AB26 AB26AC26 AC26AD26 AD26AE26 AE26AF26 AF26AG26 AG26AH26 AH26AI26 AI26AJ26 AJ26AK26 AK26AL26 AL26AM26 AM26AN26 AN26AO26 AO26AP26 AP26AQ26 AQ26AR26 AR26AS26 AS26AT26 AT26AU26 AU26AV26 AV26AW26 AW26AX26 AX26AY26 AY26AZ26 AZ26BA26 BA26BB26 BB26BC26 BC26BD26 BD26BE26 BE26BF26 BF26BG26 BG26BH26 BH26BI26 BI26BJ26 BJ26BK26 BK26BL26 BL26BM26 BM26BN26 BN26BO26 BO26BP26 BP26BQ26 BQ26BR26 BR26BS26 BS26BT26 BT26BU26 BU26BV26 BV26BW26 BW26BX26 BX26BY26 BY26BZ26 BZ26CA26 CA26BZ26"/>
    </vehicle>
    <vehicle id="15" depart="6.00">
        <route edges="BW7BW6 BW6BV6 BV6BU6 BU6BT6 BT6BS6 BS6BR6 BR6BQ6 BQ6BP6 BP6BO6 BO6BN6 BN6BM6 BM6BL6 BL6BK6 BK6BJ6 BJ6BI6 BI6BH6 BH6BG6 BG6BF6 BF6BE6 BE6BD6 BD6BC6 BC6BB6 BB6BA6 BA6AZ6 AZ6AY6 AY6AX6 AX6AW6 AW6AV6 AV6AU6 AU6AT6 AT6AS6 AS6AR6 AR6AQ6 AQ6AP6 AP6AO6 AO6AN6 AN6AM6 AM6AL6 AL6AK6 AK6AJ6 AJ6AI6 AI6AH6 AH6AG6 AG6AF6 AF6AE6 AE6AD6 AD6AC6 AC6AC7 AC7AC8 AC8AC9 AC9AC10 AC10AC11 AC11AC12 AC12AC13 AC13AC14 AC14AC15 AC15AC16 AC16AC17 AC17AC18 AC18AC19 AC19AD19 AD19AE19 AE19AF19 AF19AG19 AG19AH19 AH19AI19 AI19AJ19 AJ19AK19 AK19AL19 AL19AM19 AM19AN19 AN19AO19 AO19AP19 AP19AQ19 AQ19AR19 AR19AS19 AS19AT19 AT19AU19 AU19AV19 AV19AW19 AW19AX19 AX19AY19 AY19AZ19 AZ19BA19 BA19BB19 BB19BC19 BC19BD19 BD19BE19 BE19BF19 BF19BG19 BG19BH19 BH19BI19 BI19BJ19 BJ19BK19 BK19BL19 BL19BM19 BM19BN19 BN19BO19 BO19BP19 BP19BQ19 BQ19BR19 BR19BS19 BS19BT19 BT19BU19 BU19BV19 BV19BW19 BW19BX19 BX19BY19 BY19BZ19 BZ19CA19 CA19CB19 CB19CC19 CC19CD19 CD19CE19 CE19CF19"/>
    </vehicle>
    <vehicle id="16" depart="6.40">
        <route edges="AI21AI22 AI22AI23 AI23AI24 AI24AI25 AI25AI26 AI26AI27 AI27AI28 AI28AI29 AI29AJ29 AJ29AK29 AK29AL29 AL29AM29 AM29AN29 AN29AO29 AO29AP29 AP29AQ29 AQ29AQ30"/>
    </vehicle>
    <vehicle id="17" depart="6.80">
        <route edges="BV9BV8 BV8BU8 BU8BT8 BT8BS8 BS8BR8 BR8BQ8 BQ8BP8 BP8BO8 BO8BN8 BN8BM8 BM8BL8 BL8BK8 BK8BJ8 BJ8BI8 BI8BH8 BH8BG8 BG8BF8 BF8BE8 BE8BD8 BD8BC8 BC8BB8 BB8BA8 BA8AZ8 AZ8AY8 AY8AX8 AX8AW8 AW8AV8 AV8AU8 AU8AT8 AT8AS8 AS8AR8 AR8AQ8 AQ8AP8 AP8AO8 AO8AN8 AN8AM8 AM8AL8 AL8AK8 AK8AJ8 AJ8AI8 AI8AH8 AH8AG8 AG8AF8 AF8AE8 AE8AD8 AD8AC8 AC8AB8 AB8AB7 AB7AB6 AB6AB5 AB5AB4 AB4AB3 AB3AB2 AB2AB1 AB1AB30 AB30AB29 AB29AB28 AB28AB27 AB27AB26 AB26AB25 AB25AC25 AC25AD25 AD25AE25 AE25AF25 AF25AG25 AG25AH25 AH25AI25 AI25AJ25 AJ25AK25 AK25AL25 AL25AM25 AM25AN25 AN25AO25 AO25AP25 AP25AQ25 AQ25AR25 AR25AS25 AS25AT25 AT25AU25 AU25AV25 AV25AW25 AW25AX25 AX25AY25 AY25AZ25 AZ25BA25 BA25BB25 BB25BC25 BC25BD25 BD25BE25 BE25BF25 BF25BG25 BG25BH25 BH25BI25 BI25BJ25 BJ25BK25 BK25BL25 BL25BM25 BM25BN25 BN25BO25 BO25BP25 BP25BQ25 BQ25BR25 BR25BS25 BS25BT25 BT25BU25 BU25BV25 BV25BW25 BW25BX25 BX25BY25 BY25BZ25 BZ25CA25 CA25CB25 CB25CC25 CC25CD25 CD25CE25 CE25CF25 CF25CF24"/>
    </vehicle>
    <vehicle id="18" depart="7.20">
        <route edges="AZ14AZ15 AZ15AY15 AY15AX15 AX15AW15 AW15AV15 AV15AU15 AU15AT15 AT15AS15 AS15AR15 AR15AQ15 AQ15AP15 AP15AO15 AO15AN15 AN15AM15 AM15AL15 AL15AK15 AK15AJ15 AJ15AI15 AI15AH15 AH15AG15 AG15AF15 AF15AE15 AE15AD15 AD15AC15 AC15AB15 AB15AB14 AB14AB13 AB13AB12 AB12AB11 AB11AB10 AB10AB9 AB9AB8 AB8AB7 AB7AB6 AB6AB5 AB5AB4 AB4AB3 AB3AC3 AC3AD3 AD3AE3 AE3AF3 AF3AG3 AG3AH3 AH3AI3 AI3AJ3 AJ3AK3 AK3AL3 AL3AM3 AM3AN3 AN3AO3 AO3AP3 AP3AQ3 AQ3AR3 AR3AS3 AS3AT3 AT3AU3 AU3AV3 AV3AW3 AW3AX3 AX3AY3 AY3AZ3 AZ3BA3 BA3BB3 BB3BC3 BC3BD3 BD3BE3 BE3BF3"/>
    </vehicle>
    <vehicle id="19" depart="7.60">
        <route edges="BN20BO20 BO20BN20 BN20BM20 BM20BL20 BL20BK20 BK20BK21 BK21BK22 BK22BK21"/>
    </vehicle>
    <vehicle id="20" depart="8.00">
        <route edges="AK23AK22 AK22AJ22 AJ22AI22 AI22AH22 AH22AG22 AG22AF22 AF22AE22 AE22AD22 AD22AC22 AC22AB22 AB22AB21 AB21AB20 AB20AB19 AB19AB18 AB18AB17 AB17AB16 AB16AB15 AB15AB14 AB14AB13 AB13AB12 AB12AB11 AB11AC11 AC11AD11 AD11AE11 AE11AF11 AF11AG11 AG11AH11 AH11AI11 AI11AJ11 AJ11AK11 AK11AL11 AL11AM11 AM11AN11 AN11AO11 AO11AP11 AP11AQ11 AQ11AR11 AR11AS11 AS11AT11 AT11AU11 AU11AV11 AV11AW11 AW11AX11 AX11AY11 AY11AZ11 AZ11BA11 BA11BB11 BB11BC11 BC11BB11"/>
    </vehicle>
    <vehicle id="21" depart="8.40">
        <route edges="BU11BV11 BV11BU11 BU11BT11 BT11BS11 BS11BR11 BR11BQ11 BQ11BP11 BP11BO11 BO11BN11 BN11BM11 BM11BL11 BL11BK11 BK11BJ11 BJ11BI11 BI11BH11 BH11BG11 BG11BF11 BF11BE11 BE11BD11 BD11BC11 BC11BB11 BB11BA11 BA11AZ11 AZ11AY11 AY11AX11 AX11AW11 AW11AV11 AV11AU11 AU11AT11 AT11AS11 AS11AR11 AR11AQ11 AQ11AP11 AP11AO11 AO11AN11 AN11AM11 AM11AL11 AL11AK11 AK11AJ11 AJ11AI11 AI11AH11 AH11AG11 AG11AF11 AF11AE11 AE11AD11 AD11AC11 AC11AB11 AB11AB10 AB10AB9 AB9AB8 AB8AB7 AB7AB6 AB6AB5 AB5AB4 AB4AB3 AB3AB2 AB2AB1 AB1AB30 AB30AB29 AB29AB28 AB28AC28 AC28AD28 AD28AE28 AE28AF28 AF28AG28 AG28AH28 AH28AI28 AI28AJ28 AJ28AI28"/>
    </vehicle>
    <vehicle id="22" depart="8.80">
        <route edges="BI8BJ8 BJ8BI8 BI8BH8 BH8BG8 BG8BF8 BF8BE8 BE8BD8 BD8BC8 BC8BB8 BB8BB7 BB7BB6 BB6BB5 BB5BB4 BB4BB3 BB3BB4"/>
    </vehicle>
    <vehicle id="23" depart="9.20">
        <route edges="AC17AB17 AB17AB18 AB18AB19 AB19AB20 AB20AC20 AC20AD20 AD20AE20 AE20AF20 AF20AG20 AG20AH20 AH20AI20 AI20AJ20 AJ20AK20 AK20AL20 AL20AM20 AM20AN20 AN20AO20 AO20AP20 AP20AQ20 AQ20AR20 AR20AS20 AS20AT20 AT20AU20 AU20AV20 AV20AW20 AW20AX20 AX20AY20 AY20AZ20 AZ20BA20 BA20BB20 BB20BC20 BC20BD20 BD20BE20 BE20BF20 BF20BG20"/>
    </vehicle>
    <vehicle id="24" depart="9.60">
        <route edges="BS22BT22 BT22BS22 BS22BR22 BR22BQ22 BQ22BP22 BP22BO22 BO22BN22 BN22BM22 BM22BL22 BL22BK22 BK22BJ22 BJ22BI22 BI22BH22 BH22BG22 BG22BF22 BF22BE22 BE22BD22 BD22BC22 BC22BB22 BB22BA22 BA22AZ22 AZ22AY22 AY22AX22 AX22AW22 AW22AV22 AV22AU22 AU22AT22 AT22AS22 AS22AR22 AR22AQ22 AQ22AP22 AP22AO22 AO22AN22 AN22AM22 AM22AL22 AL22AK22 AK22AJ22 AJ22AI22 AI22AH22 AH22AG22 AG22AF22 AF22AE22 AE22AD22 AD22AC22 AC22AB22 AB22AB21 AB21AB20 AB20AB19 AB19AB18 AB18AB17 AB17AB16 AB16AB15 AB15AB14 AB14AB13 AB13AB12 AB12AB11 AB11AB10 AB10AB9 AB9AB8 AB8AB7 AB7AC7 AC7AD7 AD7AE7 AE7AF7 AF7AG7 AG7AH7 AH7AI7 AI7AJ7 AJ7AK7 AK7AL7 AL7AM7 AM7AN7 AN7AO7 AO7AP7 AP7AQ7 AQ7AR7 AR7AS7 AS7AT7 AT7AU7 AU7AV7 AV7AW7 AW7AX7 AX7AY7 AY7AZ7 AZ7BA7 BA7BB7 BB7BC7 BC7BD7 BD7BE7 BE7BF7 BF7BG7 BG7BH7 BH7BI7 BI7BJ7 BJ7BK7 BK7BL7 BL7BM7 BM7BN7 BN7BM7"/>
    </vehicle>
    <vehicle id="25" depart="10.00">
        <route edges="AD17AD16 AD16AD17 AD17AD18 AD18AD19 AD19AD20 AD20AD21 AD21AD22 AD22AD23 AD23AD24 AD24AE24 AE24AF24 AF24AG24 AG24AH24 AH24AI24 AI24AJ24 AJ24AK24 AK24AL24 AL24AM24 AM24AN24 AN24AO24 AO24AP24 AP24AQ24 AQ24AR24 AR24AS24 AS24AT24 AT24AU24 AU24AV24 AV24AW24 AW24AX24 AX24AY24 AY24AZ24 AZ24BA24 BA24BB24 BB24BC24 BC24BD24 BD24BE24 BE24BF24 BF24BG24 BG24BH24 BH24BI24 BI24BJ24 BJ24BK24 BK24BL24 BL24BM24 BM24BN24 BN24BO24 BO24BP24 BP24BQ24 BQ24BR24 BR24BS24 BS24BT24 BT24BU24 BU24BV24 BV24BW24 BW24BX24 BX24BX25"/>
    </vehicle>
    <vehicle id="26" depart="10.40">
        <route edges="AP4AO4 AO4AO3 AO3AO2 AO2AO1 AO1AO30 AO30AO29 AO29AO28 AO28AO27 AO27AO26 AO26AO25 AO25AO24 AO24AP24 AP24AQ24 AQ24AR24 AR24AS24 AS24AT24 AT24AU24 AU24AV24 AV24AW24 AW24AX24 AX24AY24 AY24AZ24 AZ24BA24 BA24BB24 BB24BC24 BC24BD24 BD24BE24 BE24BD24"/>
    </vehicle>
    <vehicle id="27" depart="10.80">
        <route edges="AO11AP11 AP11AO11 AO11AN11 AN11AM11 AM11AL11 AL11AK11 AK11AJ11 AJ11AI11 AI11AH11 AH11AG11 AG11AF11 AF11AE11 AE11AD11 AD11AC11 AC11AC12 AC12AC13 AC13AC14 AC14AC15 AC15AC16 AC16AC17 AC17AC18 AC18AC19 AC19AC20 AC20AC21 AC21AC22 AC22AC23 AC23AC24 AC24AC25 AC25AD25 AD25AE25 AE25AF25 AF25AG25 AG25AH25 AH25AI25 AI25AJ25 AJ25AK25 AK25AL25 AL25AM25 AM25AN25 AN25AO25 AO25AP25 AP25AQ25 AQ25AR25 AR25AS25 AS25AT25 AT25AU25 AU25AV25 AV25AW25 AW25AX25 AX25AY25 AY25AY26"/>
    </vehicle>
    <vehicle id="28" depart="11.20">
        <route edges="BY28BZ28 BZ28BY28 BY28BX28 BX28BW28 BW28BV28 BV28BU28 BU28BT28 BT28BS28 BS28BR28 BR28BQ28 BQ28BP28 BP28BO28 BO28BN28 BN28BM28 BM28BL28 BL28BK28 BK28BJ28 BJ28BI28 BI28BH28 BH28BG28 BG28BF28 BF28BE28 BE28BD28 BD28BC28 BC28BB28 BB28BA28 BA28AZ28 AZ28AY28 AY28AX28 AX28AW28 AW28AV28 AV28AU28 AU28AT28 AT28AS28 AS28AR28 AR28AQ28 AQ28AP28 AP28AO28 AO28AN28 AN28AM28 AM28AL28 AL28AK28 AK28AJ28 AJ28AI28 AI28AH28 AH28AG28 AG28AG29 AG29AG30 AG30AG1 AG1AG2"/>
    </vehicle>
    <vehicle id="29" depart="11.60">
        <route edges="AT6AT7 AT7AS7 AS7AR7 AR7AQ7 AQ7AP7 AP7AO7 AO7AN7 AN7AM7 AM7AL7 AL7AK7 AK7AJ7 AJ7AI7 AI7AH7 AH7AG7 AG7AF7 AF7AE7 AE7AD7 AD7AC7 AC7AC8 AC8AC9 AC9AC10 AC10AC11 AC11AC12 AC12AC13 AC13AC14 AC14AC15 AC15AC16 AC16AC17 AC17AC18 AC18AC19 AC19AC20 AC20AD20 AD20AE20 AE20AF20 AF20AG20 AG20AH20 AH20AI20 AI20AI19"/>
    </vehicle>
    <vehicle id="30" depart="12.00">
        <route edges="BW14BV14 BV14BU14 BU14BT14 BT14BS14 BS14BR14 BR14BQ14 BQ14BP14 BP14BO14 BO14BN14 BN14BM14 BM14BL14 BL14BK14 BK14BJ14 BJ14BI14 BI14BH14 BH14BG14 BG14BF14 BF14BE14 BE14BD14 BD14BC14 BC14BB14 BB14BA14 BA14AZ14 AZ14AY14 AY14AX14 AX14AW14 AW14AV14 AV14AU14 AU14AT14 AT14AS14 AS14AR14 AR14AQ14 AQ14AP14 AP14AO14 AO14AN14 AN14AM14 AM14AL14 AL14AK14 AK14AJ14 AJ14AI14 AI14AH14 AH14AG14 AG14AF14 AF14AE14 AE14AD14 AD14AC14 AC14AC15 AC15AC16 AC16AC17 AC17AC18 AC18AC19 AC19AC20 AC20AC21 AC21AC22 AC22AC23 AC23AC24 AC24AC25 AC25AC26 AC26AC27 AC27AD27 AD27AE27 AE27AF27 AF27AG27 AG27AH27 AH27AI27 AI27AJ27 AJ27AK27 AK27AL27 AL27AM27 AM27AN27 AN27AO27 AO27AN27"/>
    </vehicle>
    <vehicle id="31" depart="12.40">
        <route edges="AM18AN18 AN18AN17 AN17AN16 AN16AN15 AN15AN14 AN14AN13 AN13AN12 AN12AN11 AN11AN10 AN10AN9 AN9AO9 AO9AP9 AP9AQ9 AQ9AR9 AR9AS9 AS9AT9 AT9AU9 AU9AU10"/>
    </vehicle>
    <vehicle id="32" depart="12.80">
        <route edges="AX13AW13 AW13AW14 AW14AW15 AW15AW16 AW16AW17"/>
    </vehicle>
    <vehicle id="33" depart="13.20">
        <route edges="CG14CH14 CH14CG14 CG14CF14 CF14CE14 CE14CE15 CE15CE16 CE16CE17 CE17CE18 CE18CE19 CE19CE20 CE20CF20"/>
    </vehicle>
    <vehicle id="34" depart="13.60">
        <route edges="AU7AU6 AU6AT6 AT6AS6 AS6AR6 AR6AQ6 AQ6AP6 AP6AO6 AO6AN6 AN6AM6 AM6AL6 AL6AK6 AK6AJ6 AJ6AI6 AI6AH6 AH6AG6 AG6AF6 AF6AE6 AE6AD6 AD6AC6 AC6AC7 AC7AC8 AC8AC9 AC9AC10 AC10AC11 AC11AC12 AC12AC13 AC13AC14 AC14AC15 AC15AC16 AC16AC17 AC17AD17 AD17AE17 AE17AF17 AF17AG17 AG17AH17 AH17AI17 AI17AJ17 AJ17AK17 AK17AL17 AL17AM17 AM17AN17 AN17AO17 AO17AP17 AP17AQ17 AQ17AR17 AR17AS17 AS17AT17 AT17AU17 AU17AV17 AV17AW17 AW17AX17 AX17AY17 AY17AZ17 AZ17BA17 BA17BB17 BB17BC17 BC17BD17 BD17BE17 BE17BF17 BF17BG17 BG17BH17 BH17BI17 BI17BJ17 BJ17BK17 BK17BL17 BL17BM17 BM17BN17 BN17BO17 BO17BO18"/>
    </vehicle>
    <vehicle id="35" depart="14.00">
        <route edges="AN8AM8 AM8AM7 AM7AM6 AM6AM5 AM5AN5 AN5AO5 AO5AP5 AP5AQ5 AQ5AR5"/>
    </vehicle>
    <vehicle id="36" depart="14.40">
        <route edges="CH16CI16 CI16CH16 CH16CG16 CG16CF16 CF16CE16 CE16CD16 CD16CC16 CC16CB16 CB16CA16 CA16BZ16 BZ16BY16 BY16BX16 BX16BW16 BW16BV16 BV16BU16 BU16BT16 BT16BS16 BS16BR16 BR16BQ16 BQ16BP16 BP16BO16 BO16BN16 BN16BM16 BM16BL16 BL16BK16 BK16BJ16 BJ16BI16 BI16BH16 BH16BG16 BG16BF16 BF16BE16 BE16BD16 BD16BC16 BC16BB16 BB16BA16 BA16AZ16 AZ16AY16 AY16AX16 AX16AW16 AW16AV16 AV16AU16 AU16AT16 AT16AS16 AS16AR16 AR16AQ16 AQ16AP16 AP16AO16 AO16AN16 AN16AM16 AM16AL16 AL16AK16 AK16AJ16 AJ16AI16 AI16AH16 AH16AG16 AG16AF16 AF16AE16 AE16AD16 AD16AC16 AC16AC17 AC17AC18 AC18AC19 AC19AC20 AC20AC21 AC21AC22 AC22AC23 AC23AC24 AC24AC25 AC25AC26 AC26AC27 AC27AC28 AC28AD28 AD28AE28 AE28AF28 AF28AG28 AG28AH28 AH28AI28 AI28AJ28 AJ28AK28 AK28AL28 AL28AM28 AM28AN28 AN28AO28 AO28AP28 AP28AQ28 AQ28AR28 AR28AS28 AS28AT28 AT28AU28 AU28AV28 AV28AW28 AW28AX28 AX28AY28 AY28AZ28 AZ28BA28 BA28BB28 BB28BC28 BC28BD28 BD28BE28 BE28BF28 BF28BG28 BG28BH28 BH28BI28 BI28BJ28 BJ28BK28 BK28BL28 BL28BM28 BM28BN28 BN28BO28 BO28BP28 BP28BQ28 BQ28BR28 BR28BS28 BS28BT28 BT28BU28 BU28BV28 BV28BW28 BW28BX28 BX28BY28 BY28BZ28 BZ28CA28 CA28CB28"/>
    </vehicle>
    <vehicle id="37" depart="14.80">
        <route edges="AY2AX2 AX2AW2 AW2AV2 AV2AU2 AU2AT2 AT2AS2 AS2AR2 AR2AQ2 AQ2AP2 AP2AO2 AO2AN2 AN2AM2 AM2AL2 AL2AK2 AK2AJ2 AJ2AI2 AI2AH2 AH2AG2 AG2AF2 AF2AE2 AE2AD2 AD2AC2 AC2AB2 AB2AB1 AB1AB30 AB30AB29 AB29AB28 AB28AB27 AB27AB26 AB26AB25 AB25AB24 AB24AB23 AB23AB22 AB22AB21 AB21AC21 AC21AD21 AD21AE21 AE21AF21 AF21AG21 AG21AH21 AH21AI21 AI21AJ21 AJ21AK21 AK21AL21 AL21AM21 AM21AN21 AN21AO21 AO21AP21 AP21AQ21 AQ21AR21 AR21AS21 AS21AT21 AT21AU21 AU21AV21 AV21AW21 AW21AW20"/>
    </vehicle>
    <vehicle id="38" depart="15.20">
        <route edges="BH8BH7 BH7BI7 BI7BJ7 BJ7BK7 BK7BL7 BL7BM7 BM7BN7 BN7BO7 BO7BP7 BP7BQ7 BQ7BR7 BR7BS7 BS7BT7 BT7BU7 BU7BV7 BV7BW7 BW7BW6"/>
    </vehicle>
    <vehicle id="39" depart="15.60">
        <route edges="BY12BY13 BY13BX13 BX13BW13 BW13BV13 BV13BU13 BU13BT13 BT13BS13 BS13BR13 BR13BQ13 BQ13BP13 BP13BO13 BO13BN13 BN13BM13 BM13BL13 BL13BK13 BK13BJ13 BJ13BI13 BI13BH13 BH13BG13 BG13BF13 BF13BE13 BE13BD13 BD13BC13 BC13BB13 BB13BA13 BA13AZ13 AZ13AY13 AY13AX13 AX13AW13 AW13AV13 AV13AU13 AU13AT13 AT13AS13 AS13AR13 AR13AQ13 AQ13AP13 AP13AO13 AO13AN13 AN13AM13 AM13AL13 AL13AK13 AK13AJ13 AJ13AI13 AI13AH13 AH13AG13 AG13AF13 AF13AE13 AE13AD13 AD13AC13 AC13AB13 AB13AB12 AB12AB11 AB11AB10 AB10AB9 AB9AB8 AB8AB7 AB7AB6 AB6AB5 AB5AB4 AB4AB3 AB3AB4"/>
    </vehicle>
    <vehicle id="40" depart="16.00">
        <route edges="BY30BY29 BY29BX29 BX29BW29 BW29BV29 BV29BU29 BU29BT29 BT29BS29 BS29BR29 BR29BQ29 BQ29BP29 BP29BO29 BO29BN29 BN29BM29 BM29BL29 BL29BK29 BK29BJ29 BJ29BI29 BI29BH29 BH29BG29 BG29BF29 BF29BE29 BE29BD29 BD29BC29 BC29BB29 BB29BA29 BA29AZ29 AZ29AY29 AY29AX29 AX29AW29 AW29AV29 AV29AU29 AU29AT29 AT29AS29 AS29AR29 AR29AQ29 AQ29AP29 AP29AO29 AO29AN29 AN29AM29 AM29AL29 AL29AK29 AK29AJ29 AJ29AI29 AI29AH29 AH29AG29 AG29AF29 AF29AE29 AE29AD29 AD29AC29 AC29AB29 AB29AB28 AB28AB27 AB27AB26 AB26AB25 AB25AB24 AB24AB23 AB23AB22 AB22AB21 AB21AB20 AB20AB19 AB19AB18 AB18AB17 AB17AB16 AB16AB15 AB15AC15 AC15AD15 AD15AE15 AE15AF15 AF15AG15 AG15AH15 AH15AI15 AI15AJ15 AJ15AK15 AK15AL15 AL15AM15 AM15AN15 AN15AO15 AO15AP15 AP15AQ15 AQ15AR15 AR15AS15 AS15AT15 AT15AU15 AU15AV15 AV15AW15 AW15AX15 AX15AY15 AY15AZ15 AZ15BA15 BA15BB15 BB15BC15 BC15BD15 BD15BE15 BE15BF15 BF15BG15 BG15BH15 BH15BI15 BI15BJ15 BJ15BK15 BK15BL15 BL15BM15 BM15BN15 BN15BO15 BO15BP15 BP15BQ15 BQ15BR15 BR15BS15 BS15BT15 BT15BU15 BU15BT15"/>
    </vehicle>
    <vehicle id="41" depart="16.40">
        <route edges="BW23BV23 BV23BU23 BU23BT23 BT23BS23 BS23BR23 BR23BQ23 BQ23BP23 BP23BO23 BO23BN23 BN23BM23 BM23BL23 BL23BK23 BK23BJ23 BJ23BI23 BI23BH23 BH23BG23 BG23BF23 BF23BE23 BE23BD23 BD23BC23 BC23BB23 BB23BA23 BA23AZ23 AZ23AY23 AY23AX23 AX23AW23 AW23AW22 AW22AW21 AW21AW20 AW20AW19 AW19AW18 AW18AW17 AW17AW16 AW16AV16"/>
    </vehicle>
    <vehicle id="42" depart="16.80">
        <route edges="BH4BG4 BG4BF4 BF4BE4 BE4BD4 BD4BC4 BC4BB4 BB4BA4 BA4AZ4 AZ4AY4 AY4AX4 AX4AW4 AW4AV4 AV4AU4 AU4AT4 AT4AS4 AS4AR4 AR4AQ4 AQ4AP4 AP4AO4 AO4AN4 AN4AM4 AM4AL4 AL4AK4 AK4AJ4 AJ4AI4 AI4AH4 AH4AG4 AG4AF4 AF4AE4 AE4AD4 AD4AC4 AC4AC5 AC5AC6 AC6AC7 AC7AC8 AC8AC9 AC9AC10 AC10AC11 AC11AC12 AC12AC13 AC13AC14 AC14AC15 AC15AD15 AD15AE15 AE15AF15 AF15AG15 AG15AH15 AH15AI15 AI15AJ15 AJ15AK15 AK15AL15 AL15AM15 AM15AN15 AN15AO15 AO15AP15 AP15AQ15 AQ15AR15 AR15AS15 AS15AT15 AT15AU15 AU15AV15 AV15AW15 AW15AX15 AX15AY15 AY15AZ15 AZ15BA15 BA15BB15 BB15BC15 BC15BD15 BD15BE15 BE15BF15 BF15BG15 BG15BH15 BH15BI15 BI15BJ15 BJ15BK15 BK15BL15 BL15BM15 BM15BN15 BN15BO15 BO15BP15 BP15BQ15 BQ15BR15 BR15BS15 BS15BT15 BT15BU15 BU15BV15 BV15BW15 BW15BX15 BX15BY15 BY15BZ15 BZ15CA15 CA15CB15 CB15CB16"/>
    </vehicle>
    <vehicle id="43" depart="17.20">
        <route edges="AW20AW19 AW19AV19 AV19AU19 AU19AT19 AT19AS19 AS19AR19 AR19AQ19 AQ19AP19 AP19AO19 AO19AN19 AN19AM19 AM19AL19 AL19AK19 AK19AJ19 AJ19AI19 AI19AH19 AH19AG19 AG19AF19 AF19AE19 AE19AD19 AD19AC19 AC19AC20 AC20AC21 AC21AC22 AC22AC23 AC23AC24 AC24AC25 AC25AC26 AC26AC27 AC27AC28 AC28AC29 AC29AC30 AC30AC1 AC1AC2 AC2AD2 AD2AE2 AE2AF2 AF2AG2 AG2AH2 AH2AI2 AI2AJ2 AJ2AK2 AK2AL2 AL2AM2 AM2AN2 AN2AO2 AO2AP2 AP2AQ2 AQ2AR2 AR2AS2 AS2AT2 AT2AU2 AU2AV2 AV2AW2 AW2AX2 AX2AY2 AY2AZ2 AZ2BA2 BA2BB2 BB2BC2 BC2BD2 BD2BE2 BE2BF2 BF2BG2 BG2BH2 BH2BI2 BI2BJ2 BJ2BK2 BK2BL2 BL2BM2 BM2BN2 BN2BO2 BO2BP2 BP2BQ2 BQ2BR2 BR2BS2 BS2BT2 BT2BU2 BU2BV2 BV2BW2 BW2BX2 BX2BY2 BY2BZ2 BZ2CA2"/>
    </vehicle>
    <vehicle id="44" depart="17.60">
        <route edges="BM8BM9 BM9BM10 BM10BM11 BM11BM12 BM12BM13 BM13BM14 BM14BM15 BM15BM16 BM16BM17 BM17BM18 BM18BM19 BM19BN19 BN19BO19"/>
    </vehicle>
    <vehicle id="45" depart="18.00">
        <route edges="AH25AH24 AH24AH25 AH25AI25 AI25AJ25 AJ25AK25 AK25AL25 AL25AM25 AM25AN25 AN25AO25 AO25AP25 AP25AQ25 AQ25AR25 AR25AS25 AS25AT25 AT25AU25 AU25AV25 AV25AW25 AW25AX25 AX25AY25 AY25AZ25 AZ25BA25 BA25BB25 BB25BB24"/>
    </vehicle>
    <vehicle id="46" depart="18.40">
        <route edges="BG26BG25 BG25BG24 BG24BH24 BH24BI24 BI24BJ24 BJ24BK24 BK24BL24 BL24BM24 BM24BN24 BN24BO24 BO24BP24 BP24BQ24 BQ24BR24 BR24BS24 BS24BT24 BT24BU24 BU24BV24 BV24BW24 BW24BX24 BX24BY24 BY24BZ24 BZ24CA24 CA24CB24 CB24CC24"/>
    </vehicle>
    <vehicle id="47" depart="18.80">
        <route edges="BT30BU30 BU30BT30 BT30BS30 BS30BR30 BR30BQ30 BQ30BP30 BP30BO30 BO30BN30 BN30BM30 BM30BL30 BL30BK30 BK30BJ30 BJ30BI30 BI30BH30 BH30BG30 BG30BF30 BF30BE30 BE30BD30 BD30BC30 BC30BB30 BB30BA30 BA30AZ30 AZ30AY30 AY30AX30 AX30AW30 AW30AV30 AV30AU30 AU30AT30 AT30AS30 AS30AR30 AR30AQ30 AQ30AP30 AP30AO30 AO30AN30 AN30AM30 AM30AL30 AL30AK30 AK30AJ30 AJ30AI30 AI30AH30 AH30AG30 AG30AF30 AF30AE30 AE30AD30 AD30AC30 AC30AB30 AB30AB29 AB29AB28 AB28AB27 AB27AB26 AB26AB25 AB25AB24 AB24AB23 AB23AB22 AB22AB21 AB21AB20 AB20AB19 AB19AB18 AB18AC18 AC18AD18 AD18AE18 AE18AF18 AF18AG18 AG18AG19"/>
    </vehicle>
    <vehicle id="48" depart="19.20">
        <route edges="CH25CG25 CG25CF25 CF25CE25 CE25CE24 CE24CE23 CE23CE22 CE22CE21 CE21CE20 CE20CE19 CE19CE18 CE18CD18"/>
    </vehicle>
    <vehicle id="49" depart="19.60">
        <route edges="BY24BZ24 BZ24BY24 BY24BX24 BX24BW24 BW24BV24 BV24BU24 BU24BT24 BT24BS24 BS24BR24 BR24BQ24 BQ24BP24 BP24BO24 BO24BN24 BN24BM24 BM24BL24 BL24BK24 BK24BJ24 BJ24BI24 BI24BH24 BH24BG24 BG24BF24 BF24BE24 BE24BD24 BD24BC24 BC24BB24 BB24BA24 BA24AZ24 AZ24AY24 AY24AX24 AX24AW24 AW24AV24 AV24AU24 AU24AT24 AT24AS24 AS24AR24 AR24AQ24 AQ24AP24 AP24AO24 AO24AN24 AN24AM24 AM24AL24 AL24AK24 AK24AJ24 AJ24AI24 AI24AH24 AH24AG24 AG24AF24 AF24AE24 AE24AD24 AD24AC24 AC24AB24 AB24AB23 AB23AB22 AB22AB21 AB21AB20 AB20AB19 AB19AB18 AB18AB17 AB17AB16 AB16AB15 AB15AB14 AB14AB13 AB13AB12 AB12AB11 AB11AB10 AB10AC10 AC10AD10 AD10AE10 AE10AF10 AF10AG10 AG10AH10 AH10AI10 AI10AJ10 AJ10AK10 AK10AL10 AL10AM10 AM10AN10 AN10AO10 AO10AP10 AP10AQ10 AQ10AR10 AR10AS10 AS10AT10 AT10AU10 AU10AV10 AV10AW10 AW10AW9"/>
    </vehicle>
    <vehicle id="50" depart="20.00">
        <route edges="BS21BR21 BR21BQ21 BQ21BP21 BP21BO21 BO21BN21 BN21BM21 BM21BL21 BL21BK21 BK21BJ21 BJ21BI21 BI21BH21 BH21BG21 BG21BF21 BF21BE21 BE21BD21 BD21BC21 BC21BB21 BB21BA21 BA21AZ21 AZ21AY21 AY21AX21 AX21AW21 AW21AV21 AV21AU21 AU21AT21 AT21AS21 AS21AR21 AR21AQ21 AQ21AP21 AP21AO21 AO21AN21 AN21AM21 AM21AL21 AL21AK21 AK21AJ21 AJ21AI21 AI21AH21 AH21AG21 AG21AF21 AF21AE21 AE21AD21 AD21AC21 AC21AC20 AC20AC19 AC19AC18 AC18AC17 AC17AC16 AC16AB16"/>
    </vehicle>
    <vehicle id="51" depart="20.40">
        <route edges="AK13AK12 AK12AK13 AK13AK14 AK14AK15 AK15AK16 AK16AK17 AK17AK18 AK18AK19 AK19AK20 AK20AL20 AL20AM20 AM20AN20 AN20AO20 AO20AP20 AP20AQ20 AQ20AR20 AR20AS20 AS20AT20 AT20AU20 AU20AV20 AV20AW20 AW20AX20 AX20AY20 AY20AZ20 AZ20BA20 BA20BB20 BB20BC20 BC20BD20 BD20BE20 BE20BF20 BF20BG20 BG20BH20 BH20BI20 BI20BJ20 BJ20BK20 BK20BL20 BL20BM20 BM20BN20 BN20BO20 BO20BP20 BP20BQ20 BQ20BR20 BR20BS20 BS20BT20 BT20BU20 BU20BV20 BV20BW20 BW20BX20 BX20BY20 BY20BZ20 BZ20CA20 CA20CB20 CB20CC20 CC20CC19"/>
    </vehicle>
    <vehicle id="52" depart="20.80">
        <route edges="BN16BM16 BM16BM17 BM17BN17 BN17BO17 BO17BP17 BP17BQ17"/>
    </vehicle>
    <vehicle id="53" depart="21.20">
        <route edges="CB5CA5 CA5BZ5 BZ5BY5 BY5BX5 BX5BW5 BW5BV5 BV5BU5 BU5BT5 BT5BS5 BS5BR5 BR5BQ5 BQ5BP5 BP5BO5 BO5BN5 BN5BM5 BM5BL5 BL5BK5 BK5BJ5 BJ5BI5 BI5BH5 BH5BG5 BG5BF5 BF5BE5 BE5BD5 BD5BC5 BC5BB5 BB5BA5 BA5AZ5 AZ5AY5 AY5AX5 AX5AW5 AW5AV5 AV5AU5 AU5AT5 AT5AS5 AS5AR5 AR5AQ5 AQ5AP5 AP5AO5 AO5AN5 AN5AM5 AM5AL5 AL5AK5 AK5AJ5 AJ5AI5 AI5AH5 AH5AG5 AG5AF5 AF5AE5 AE5AD5 AD5AC5 AC5AB5 AB5AB4 AB4AB3 AB3AB2 AB2AB1 AB1AB30 AB30AB29 AB29AB28 AB28AB27 AB27AB26 AB26AB25 AB25AB24 AB24AB23 AB23AB22 AB22AB21 AB21AB20 AB20AC20 AC20AD20 AD20AE20 AE20AF20 AF20AG20 AG20AH20 AH20AI20 AI20AJ20 AJ20AK20 AK20AL20 AL20AM20 AM20AN20 AN20AO20 AO20AP20 AP20AQ20 AQ20AR20 AR20AS20 AS20AT20 AT20AU20 AU20AV20 AV20AW20 AW20AX20 AX20AY20 AY20AZ20 AZ20BA20 BA20BB20 BB20BC20 BC20BD20 BD20BE20 BE20BF20 BF20BG20 BG20BH20 BH20BI20 BI20BJ20 BJ20BK20 BK20BL20 BL20BM20 BM20BN20 BN20BO20 BO20BP20 BP20BQ20 BQ20BR20 BR20BS20 BS20BT20 BT20BU20 BU20BU21"/>
    </vehicle>
    <vehicle id="54" depart="21.60">
        <route edges="AV16AV15 AV15AU15 AU15AT15 AT15AS15 AS15AR15 AR15AQ15 AQ15AP15 AP15AO15 AO15AN15 AN15AM15 AM15AL15 AL15AK15 AK15AJ15 AJ15AI15 AI15AH15 AH15AG15 AG15AF15 AF15AE15 AE15AD15 AD15AC15 AC15AC16 AC16AC17 AC17AC18 AC18AC19 AC19AC20 AC20AC21 AC21AC22 AC22AC23 AC23AC24 AC24AC25 AC25AC26 AC26AC27 AC27AC28 AC28AD28 AD28AE28 AE28AF28 AF28AG28 AG28AH28 AH28AI28 AI28AJ28 AJ28AK28 AK28AL28 AL28AM28 AM28AN28 AN28AO28 AO28AP28 AP28AQ28 AQ28AR28 AR28AS28 AS28AT28 AT28AU28 AU28AV28 AV28AW28 AW28AX28 AX28AY28 AY28AZ28 AZ28BA28 BA28BB28 BB28BC28 BC28BD28 BD28BE28 BE28BF28 BF28BG28 BG28BH28 BH28BI28 BI28BJ28 BJ28BK28 BK28BL28 BL28BM28 BM28BN28 BN28BN27"/>
    </vehicle>
    <vehicle id="55" depart="22.00">
        <route edges="CE3CE2 CE2CD2 CD2CC2 CC2CC3 CC3CC4 CC4CC5 CC5CC4"/>
    </vehicle>
    <vehicle id="56" depart="22.40">