<?xml version="1.0" encoding="UTF-8"?>

<!-- generated on 04/01/19 23:18:29 by Eclipse SUMO duarouter Version 1.1.0
<configuration xmlns:xsi="http://www.w3.org/2001/XMLSchema-instance" xsi:noNamespaceSchemaLocation="http://sumo.dlr.de/xsd/duarouterConfiguration.xsd">

    <input>
        <net-file value="net.net.xml"/>
        <route-files value="trips.trips.xml"/>
    </input>

    <output>
        <output-file value="out-30-60-40/./rou5000.rou.xml"/>
        <alternatives-output value="out-30-60-40/./rou5000.rou.alt.xml"/>
    </output>

    <time>
        <begin value="0.0"/>
        <end value="100.0"/>
    </time>

    <report>
        <no-warnings value="true"/>
        <ignore-errors value="true"/>
        <no-step-log value="true"/>
    </report>

</configuration>
-->

<routes xmlns:xsi="http://www.w3.org/2001/XMLSchema-instance" xsi:noNamespaceSchemaLocation="http://sumo.dlr.de/xsd/routes_file.xsd">
    <vehicle id="0" depart="0.00">
        <route edges="BV1BW1 BW1BV1 BV1BU1 BU1BT1 BT1BS1 BS1BR1 BR1BQ1 BQ1BP1 BP1BO1 BO1BN1 BN1BM1 BM1BL1 BL1BK1 BK1BJ1 BJ1BI1 BI1BH1 BH1BG1 BG1BF1 BF1BE1 BE1BD1 BD1BC1 BC1BB1 BB1BA1 BA1AZ1 AZ1AY1 AY1AX1 AX1AW1 AW1AV1 AV1AU1 AU1AT1 AT1AS1 AS1AR1 AR1AQ1 AQ1AP1 AP1AO1 AO1AN1 AN1AM1 AM1AL1 AL1AK1 AK1AJ1 AJ1AI1 AI1AH1 AH1AG1 AG1AF1 AF1AE1 AE1AD1 AD1AC1 AC1AC2 AC2AC3 AC3AC4 AC4AC5 AC5AC6 AC6AC7 AC7AC8 AC8AC9 AC9AC10 AC10AC11 AC11AC12 AC12AC13 AC13AC14 AC14AC15 AC15AD15 AD15AE15 AE15AF15 AF15AG15 AG15AH15 AH15AI15 AI15AJ15 AJ15AK15 AK15AL15 AL15AM15 AM15AN15 AN15AO15 AO15AP15 AP15AQ15 AQ15AR15 AR15AS15 AS15AT15 AT15AU15 AU15AV15 AV15AW15 AW15AX15 AX15AY15 AY15AZ15 AZ15BA15 BA15BB15 BB15BC15 BC15BD15 BD15BE15 BE15BF15 BF15BG15 BG15BH15 BH15BI15 BI15BJ15 BJ15BK15 BK15BL15 BL15BM15 BM15BN15 BN15BO15 BO15BP15 BP15BO15"/>
    </vehicle>
    <vehicle id="1" depart="0.02">
        <route edges="BA3BA4 BA4AZ4 AZ4AY4 AY4AX4 AX4AW4 AW4AV4 AV4AU4 AU4AT4 AT4AS4 AS4AR4 AR4AQ4 AQ4AP4 AP4AO4 AO4AN4 AN4AM4 AM4AL4 AL4AK4 AK4AJ4 AJ4AI4 AI4AH4 AH4AG4 AG4AF4 AF4AE4 AE4AD4 AD4AC4 AC4AB4 AB4AB3 AB3AB2 AB2AB1 AB1AB30 AB30AB29 AB29AB28 AB28AB27 AB27AB26 AB26AB25 AB25AB24 AB24AB23 AB23AB22 AB22AB21 AB21AB20 AB20AB19 AB19AC19 AC19AD19 AD19AE19 AE19AF19 AF19AG19 AG19AH19 AH19AI19 AI19AJ19 AJ19AK19 AK19AL19 AL19AM19 AM19AN19 AN19AO19 AO19AP19 AP19AQ19 AQ19AR19 AR19AS19 AS19AT19 AT19AU19 AU19AV19 AV19AW19 AW19AX19 AX19AY19 AY19AZ19 AZ19BA19 BA19BB19 BB19BC19 BC19BD19 BD19BE19 BE19BF19 BF19BG19 BG19BH19 BH19BI19 BI19BJ19 BJ19BK19 BK19BL19 BL19BM19 BM19BN19 BN19BO19 BO19BN19"/>
    </vehicle>
    <vehicle id="2" depart="0.04">
        <route edges="BR25BR24 BR24BQ24 BQ24BP24 BP24BO24 BO24BN24 BN24BM24 BM24BL24 BL24BK24 BK24BJ24 BJ24BI24 BI24BI23 BI23BI22 BI22BI21 BI21BI20 BI20BI19 BI19BH19"/>
    </vehicle>
    <vehicle id="3" depart="0.06">
        <route edges="BO2BP2 BP2BO2 BO2BN2 BN2BM2 BM2BL2 BL2BK2 BK2BJ2 BJ2BI2 BI2BH2 BH2BG2 BG2BF2 BF2BE2 BE2BD2 BD2BC2 BC2BB2 BB2BA2 BA2AZ2 AZ2AY2 AY2AX2 AX2AW2 AW2AV2 AV2AU2 AU2AT2 AT2AS2 AS2AR2 AR2AQ2 AQ2AP2 AP2AO2 AO2AN2 AN2AM2 AM2AL2 AL2AK2 AK2AJ2 AJ2AI2 AI2AH2 AH2AG2 AG2AF2 AF2AE2 AE2AD2 AD2AC2 AC2AB2 AB2AB1 AB1AB30 AB30AB29 AB29AB28 AB28AB27 AB27AB26 AB26AB25 AB25AB24 AB24AB23 AB23AB22 AB22AB21 AB21AC21 AC21AD21 AD21AE21 AE21AF21 AF21AG21 AG21AH21 AH21AI21 AI21AJ21 AJ21AK21 AK21AL21 AL21AM21 AM21AN21 AN21AO21 AO21AP21 AP21AQ21 AQ21AR21 AR21AS21 AS21AT21 AT21AU21 AU21AV21 AV21AW21 AW21AX21 AX21AY21 AY21AZ21 AZ21BA21 BA21BB21 BB21BC21 BC21BD21 BD21BE21 BE21BF21 BF21BG21 BG21BH21 BH21BI21 BI21BJ21 BJ21BK21 BK21BL21 BL21BM21 BM21BN21 BN21BO21 BO21BP21 BP21BQ21 BQ21BR21 BR21BS21"/>
    </vehicle>
    <vehicle id="4" depart="0.08">
        <route edges="AO11AN11 AN11AM11 AM11AL11 AL11AM11"/>
    </vehicle>
    <vehicle id="5" depart="0.10">
        <route edges="BR4BR3 BR3BR2 BR2BS2 BS2BT2 BT2BU2 BU2BV2 BV2BW2 BW2BW3"/>
    </vehicle>
    <vehicle id="6" depart="0.12">
        <route edges="AD2AC2 AC2AC1 AC1AC30 AC30AC29 AC29AD29 AD29AE29 AE29AF29 AF29AG29 AG29AH29 AH29AI29 AI29AJ29 AJ29AK29 AK29AL29 AL29AM29 AM29AN29 AN29AO29 AO29AP29 AP29AQ29 AQ29AR29 AR29AS29 AS29AT29 AT29AU29 AU29AV29 AV29AW29 AW29AX29 AX29AY29 AY29AZ29 AZ29BA29 BA29BB29 BB29BC29 BC29BD29 BD29BE29 BE29BF29 BF29BG29 BG29BH29 BH29BI29 BI29BJ29 BJ29BK29 BK29BL29 BL29BM29 BM29BN29 BN29BO29 BO29BO28"/>
    </vehicle>
    <vehicle id="7" depart="0.14">
        <route edges="CE11CD11 CD11CC11 CC11CB11 CB11CA11 CA11BZ11 BZ11BY11 BY11BX11 BX11BW11 BW11BV11 BV11BU11 BU11BT11 BT11BS11 BS11BR11 BR11BQ11 BQ11BP11 BP11BO11 BO11BN11 BN11BM11 BM11BL11 BL11BK11 BK11BJ11 BJ11BI11 BI11BH11 BH11BG11 BG11BF11 BF11BE11 BE11BD11 BD11BC11 BC11BB11 BB11BA11 BA11AZ11 AZ11AY11 AY11AX11 AX11AW11 AW11AV11 AV11AU11 AU11AT11 AT11AS11 AS11AR11 AR11AQ11 AQ11AP11 AP11AO11 AO11AN11 AN11AM11 AM11AL11 AL11AK11 AK11AJ11 AJ11AI11 AI11AH11 AH11AG11 AG11AF11 AF11AE11 AE11AD11 AD11AC11 AC11AB11 AB11AB10 AB10AB9 AB9AB8 AB8AB7 AB7AB6 AB6AB5 AB5AB4 AB4AB3 AB3AB2 AB2AB1 AB1AB30 AB30AB29 AB29AB28 AB28AC28 AC28AD28 AD28AE28 AE28AF28 AF28AG28 AG28AH28 AH28AI28 AI28AJ28 AJ28AK28 AK28AL28 AL28AM28 AM28AN28 AN28AO28 AO28AP28 AP28AQ28 AQ28AR28 AR28AS28 AS28AT28 AT28AU28 AU28AV28 AV28AW28 AW28AX28 AX28AY28 AY28AZ28 AZ28BA28 BA28BB28 BB28BC28 BC28BD28 BD28BE28 BE28BF28"/>
    </vehicle>
    <vehicle id="8" depart="0.16">
        <route edges="AD14AD15 AD15AD16 AD16AD17 AD17AD18 AD18AD19 AD19AE19 AE19AD19"/>
    </vehicle>
    <vehicle id="9" depart="0.18">
        <route edges="AO4AP4 AP4AP3 AP3AP2 AP2AP1 AP1AP30 AP30AP29 AP29AP28 AP28AP27 AP27AP26 AP26AP25 AP25AP24 AP24AQ24 AQ24AR24 AR24AS24 AS24AT24 AT24AU24 AU24AV24 AV24AW24 AW24AX24 AX24AY24 AY24AZ24 AZ24BA24 BA24BB24 BB24BC24 BC24BD24 BD24BE24 BE24BF24 BF24BG24 BG24BH24 BH24BI24 BI24BJ24 BJ24BK24 BK24BL24 BL24BM24"/>
    </vehicle>
    <vehicle id="10" depart="0.20">
        <route edges="CE7CE8 CE8CD8 CD8CC8 CC8CB8 CB8CA8 CA8BZ8 BZ8BY8 BY8BX8 BX8BW8 BW8BV8 BV8BU8 BU8BT8 BT8BS8 BS8BR8 BR8BQ8 BQ8BP8 BP8BO8 BO8BN8 BN8BM8 BM8BL8 BL8BK8 BK8BJ8 BJ8BI8 BI8BH8 BH8BG8 BG8BF8 BF8BE8 BE8BD8 BD8BC8 BC8BB8 BB8BA8 BA8AZ8 AZ8AY8 AY8AX8 AX8AW8 AW8AV8 AV8AU8 AU8AT8 AT8AT7 AT7AT6 AT6AT5 AT5AT4 AT4AT3 AT3AT2 AT2AT1 AT1AT30 AT30AT29 AT29AT28"/>
    </vehicle>
    <vehicle id="11" depart="0.22">
        <route edges="AQ28AQ29 AQ29AQ30 AQ30AQ1 AQ1AQ2 AQ2AQ3 AQ3AR3 AR3AS3 AS3AT3 AT3AU3 AU3AV3 AV3AW3 AW3AX3 AX3AY3 AY3AZ3 AZ3BA3 BA3BA4"/>
    </vehicle>
    <vehicle id="12" depart="0.24">
        <route edges="BS21BS20 BS20BS21 BS21BS22 BS22BS23 BS23BS24 BS24BS25 BS25BT25 BT25BU25 BU25BV25 BV25BW25 BW25BX25 BX25BY25 BY25BZ25 BZ25CA25 CA25CB25 CB25CC25 CC25CC26"/>
    </vehicle>
    <vehicle id="13" depart="0.26">
        <route edges="BM19BM18 BM18BL18 BL18BK18 BK18BJ18 BJ18BI18 BI18BH18 BH18BG18 BG18BF18 BF18BE18 BE18BD18 BD18BC18 BC18BB18 BB18BA18 BA18AZ18 AZ18AY18 AY18AX18 AX18AW18 AW18AV18 AV18AU18 AU18AT18 AT18AS18 AS18AR18 AR18AQ18 AQ18AP18 AP18AO18 AO18AN18 AN18AM18 AM18AL18 AL18AK18 AK18AJ18 AJ18AI18 AI18AH18 AH18AG18 AG18AG17 AG17AG16 AG16AG15 AG15AG14 AG14AG13 AG13AG12 AG12AG11 AG11AG10 AG10AG9 AG9AG8 AG8AG9"/>
    </vehicle>
    <vehicle id="14" depart="0.28">
        <route edges="AN30AN29 AN29AM29 AM29AL29 AL29AK29 AK29AJ29 AJ29AI29 AI29AH29 AH29AG29 AG29AF29 AF29AE29 AE29AD29 AD29AC29 AC29AB29 AB29AB28 AB28AB27 AB27AB26 AB26AB25 AB25AB24 AB24AB23 AB23AB22 AB22AB21 AB21AB20 AB20AB19 AB19AB18 AB18AB17 AB17AB16 AB16AC16 AC16AD16 AD16AE16 AE16AF16 AF16AG16 AG16AH16 AH16AI16 AI16AJ16 AJ16AK16 AK16AL16 AL16AM16 AM16AN16 AN16AO16 AO16AP16 AP16AQ16 AQ16AR16 AR16AS16 AS16AT16 AT16AU16 AU16AV16 AV16AU16"/>
    </vehicle>
    <vehicle id="15" depart="0.30">
        <route edges="BR16BR15 BR15BQ15 BQ15BP15 BP15BO15 BO15BN15 BN15BM15 BM15BL15 BL15BK15 BK15BJ15 BJ15BI15 BI15BH15 BH15BG15 BG15BF15 BF15BE15 BE15BD15 BD15BC15 BC15BB15 BB15BA15 BA15AZ15 AZ15AY15 AY15AX15 AX15AW15 AW15AV15 AV15AU15 AU15AT15 AT15AS15 AS15AR15 AR15AQ15 AQ15AP15 AP15AO15 AO15AN15 AN15AM15 AM15AL15 AL15AK15 AK15AJ15 AJ15AI15 AI15AH15 AH15AG15 AG15AF15 AF15AE15 AE15AD15 AD15AC15 AC15AC16 AC16AC17 AC17AC18 AC18AC19 AC19AC20 AC20AC21 AC21AC22 AC22AC23 AC23AC24 AC24AC25 AC25AC26 AC26AD26 AD26AE26 AE26AF26 AF26AG26 AG26AH26 AH26AI26 AI26AJ26 AJ26AK26 AK26AL26 AL26AM26 AM26AN26 AN26AO26 AO26AP26 AP26AQ26 AQ26AR26 AR26AS26 AS26AT26 AT26AU26 AU26AV26 AV26AW26 AW26AX26 AX26AY26 AY26AZ26 AZ26BA26 BA26BB26 BB26BC26 BC26BD26 BD26BE26 BE26BF26 BF26BG26 BG26BH26 BH26BI26 BI26BJ26 BJ26BK26 BK26BL26 BL26BM26 BM26BN26 BN26BO26 BO26BO27"/>
    </vehicle>
    <vehicle id="16" depart="0.32">
        <route edges="BL1BL30 BL30BL1 BL1BL2 BL2BL3 BL3BL4 BL4BL5 BL5BL6 BL6BL7 BL7BL8 BL8BL9 BL9BL10 BL10BM10 BM10BN10 BN10BO10 BO10BP10 BP10BQ10 BQ10BR10 BR10BS10 BS10BT10 BT10BU10 BU10BV10 BV10BW10 BW10BX10 BX10BY10 BY10BZ10 BZ10CA10 CA10CB10 CB10CB11"/>
    </vehicle>
    <vehicle id="17" depart="0.34">
        <route edges="AR30AR29 AR29AR30 AR30AR1 AR1AR2 AR2AR3 AR3AR4 AR4AR5 AR5AR6 AR6AR7 AR7AR8 AR8AS8 AS8AT8 AT8AU8 AU8AU7"/>
    </vehicle>
    <vehicle id="18" depart="0.36">
        <route edges="BQ16BR16 BR16BR17 BR17BR18 BR18BR19 BR19BS19 BS19BT19 BT19BU19 BU19BV19 BV19BW19 BW19BX19 BX19BY19 BY19BZ19 BZ19CA19 CA19CB19 CB19CC19 CC19CD19 CD19CE19 CE19CF19 CF19CG19 CG19CH19 CH19CI19 CI19CI18"/>
    </vehicle>
    <vehicle id="19" depart="0.38">
        <route edges="BE26BE25 BE25BD25 BD25BC25 BC25BB25 BB25BA25 BA25AZ25 AZ25AY25 AY25AX25 AX25AW25 AW25AV25 AV25AU25 AU25AT25 AT25AS25 AS25AR25 AR25AQ25 AQ25AP25 AP25AO25 AO25AN25 AN25AM25 AM25AL25 AL25AK25 AK25AJ25 AJ25AI25 AI25AH25 AH25AG25 AG25AG24 AG24AG23 AG23AG22 AG22AH22"/>
    </vehicle>
    <vehicle id="20" depart="0.40">
        <route edges="CE26CD26 CD26CC26 CC26CB26 CB26CA26 CA26BZ26 BZ26BY26 BY26BX26 BX26BW26 BW26BV26 BV26BU26 BU26BT26 BT26BS26 BS26BR26 BR26BQ26 BQ26BP26 BP26BO26 BO26BN26 BN26BM26 BM26BL26 BL26BK26 BK26BJ26 BJ26BI26 BI26BH26 BH26BG26 BG26BF26 BF26BE26 BE26BD26 BD26BC26 BC26BB26 BB26BA26 BA26AZ26 AZ26AY26 AY26AX26 AX26AW26 AW26AV26 AV26AU26 AU26AT26 AT26AS26 AS26AR26 AR26AQ26 AQ26AP26 AP26AO26 AO26AN26 AN26AM26 AM26AL26 AL26AK26 AK26AJ26 AJ26AI26 AI26AH26 AH26AG26 AG26AF26 AF26AE26 AE26AD26 AD26AC26 AC26AC27 AC27AC28 AC28AC29 AC29AC30 AC30AC1 AC1AC2 AC2AC3 AC3AC4 AC4AC5 AC5AC6 AC6AC7 AC7AC8 AC8AC9 AC9AC10 AC10AD10 AD10AE10 AE10AF10 AF10AG10 AG10AH10 AH10AI10 AI10AJ10 AJ10AK10 AK10AL10 AL10AM10 AM10AN10 AN10AO10 AO10AP10 AP10AQ10 AQ10AR10 AR10AS10 AS10AT10 AT10AU10 AU10AV10 AV10AW10 AW10AX10 AX10AY10 AY10AZ10 AZ10BA10 BA10BB10 BB10BC10 BC10BC9"/>
    </vehicle>
    <vehicle id="21" depart="0.42">
        <route edges="AI8AJ8 AJ8AI8 AI8AH8 AH8AG8 AG8AF8 AF8AE8 AE8AD8 AD8AC8 AC8AC9 AC9AC10 AC10AC11 AC11AC12 AC12AC13 AC13AC14 AC14AC15 AC15AC16 AC16AC17 AC17AC18 AC18AC19 AC19AC20 AC20AC21 AC21AD21 AD21AE21 AE21AF21 AF21AG21 AG21AH21 AH21AI21 AI21AJ21 AJ21AK21 AK21AL21 AL21AM21 AM21AN21 AN21AN20"/>
    </vehicle>
    <vehicle id="22" depart="0.44">
        <route edges="AM3AL3 AL3AK3 AK3AJ3 AJ3AI3 AI3AH3 AH3AG3 AG3AF3 AF3AE3 AE3AD3 AD3AC3 AC3AB3 AB3AB2 AB2AB1 AB1AB30 AB30AB29 AB29AB28 AB28AB27 AB27AB26 AB26AB25 AB25AB24 AB24AB23 AB23AB22 AB22AB21 AB21AB20 AB20AC20 AC20AD20 AD20AE20 AE20AF20 AF20AG20 AG20AH20 AH20AI20 AI20AJ20 AJ20AK20 AK20AL20 AL20AM20 AM20AN20 AN20AO20 AO20AP20 AP20AQ20 AQ20AR20 AR20AS20 AS20AT20 AT20AU20 AU20AV20 AV20AW20 AW20AX20 AX20AY20 AY20AZ20 AZ20BA20 BA20BB20 BB20BC20 BC20BD20 BD20BE20 BE20BF20 BF20BG20 BG20BH20 BH20BI20 BI20BJ20 BJ20BK20 BK20BL20 BL20BM20 BM20BN20 BN20BO20 BO20BP20 BP20BQ20"/>
    </vehicle>
    <vehicle id="23" depart="0.46">
        <route edges="AM20AL20 AL20AL19 AL19AL18 AL18AL17 AL17AL16 AL16AL15 AL15AL14 AL14AL13 AL13AL12 AL12AL11 AL11AL10 AL10AM10 AM10AN10 AN10AO10 AO10AP10 AP10AQ10 AQ10AR10 AR10AS10 AS10AT10 AT10AU10 AU10AV10 AV10AW10 AW10AX10 AX10AX11"/>
    </vehicle>
    <vehicle id="24" depart="0.48">
        <route edges="AE22AE23 AE23AE24 AE24AE25 AE25AF25 AF25AG25 AG25AH25 AH25AI25 AI25AJ25 AJ25AK25 AK25AL25 AL25AM25 AM25AN25 AN25AO25 AO25AP25 AP25AQ25 AQ25AR25 AR25AS25 AS25AT25 AT25AU25 AU25AV25 AV25AW25 AW25AX25 AX25AY25 AY25AZ25 AZ25BA25 BA25BB25 BB25BC25 BC25BD25 BD25BE25 BE25BF25 BF25BG25 BG25BH25 BH25BI25 BI25BJ25 BJ25BJ26"/>
    </vehicle>
    <vehicle id="25" depart="0.50">
        <route edges="BG2BH2 BH2BG2 BG2BF2 BF2BE2 BE2BD2 BD2BC2 BC2BB2 BB2BA2 BA2AZ2 AZ2AY2 AY2AX2 AX2AW2 AW2AV2 AV2AU2 AU2AT2 AT2AS2 AS2AR2 AR2AQ2 AQ2AP2 AP2AO2 AO2AO1 AO1AN1"/>
    </vehicle>
    <vehicle id="26" depart="0.52">
        <route edges="CD24CC24 CC24CB24 CB24CA24 CA24BZ24 BZ24BY24 BY24BX24 BX24BW24 BW24BV24 BV24BU24 BU24BT24 BT24BS24 BS24BR24 BR24BQ24 BQ24BP24 BP24BO24 BO24BN24 BN24BM24 BM24BL24 BL24BK24 BK24BJ24 BJ24BI24 BI24BH24 BH24BG24 BG24BF24 BF24BE24 BE24BD24 BD24BC24 BC24BB24 BB24BA24 BA24AZ24 AZ24AY24 AY24AX24 AX24AW24 AW24AV24 AV24AU24 AU24AT24 AT24AS24 AS24AR24 AR24AQ24 AQ24AP24 AP24AO24 AO24AN24 AN24AM24 AM24AM23 AM23AM22 AM22AM21 AM21AM20 AM20AM19 AM19AL19"/>
    </vehicle>
    <vehicle id="27" depart="0.54">
        <route edges="BJ28BJ27 BJ27BI27 BI27BH27 BH27BG27 BG27BF27 BF27BE27 BE27BD27 BD27BC27 BC27BB27 BB27BA27 BA27AZ27 AZ27AY27 AY27AX27 AX27AW27 AW27AV27 AV27AU27 AU27AT27 AT27AS27 AS27AR27 AR27AQ27 AQ27AP27 AP27AO27 AO27AN27 AN27AM27 AM27AL27 AL27AK27 AK27AJ27 AJ27AI27 AI27AH27 AH27AH28 AH28AH29 AH29AH30 AH30AH1 AH1AH2 AH2AH3"/>
    </vehicle>
    <vehicle id="28" depart="0.56">
        <route edges="BL2BK2 BK2BJ2 BJ2BI2 BI2BH2 BH2BG2 BG2BF2 BF2BE2 BE2BD2 BD2BC2 BC2BB2 BB2BA2 BA2AZ2 AZ2AY2 AY2AX2 AX2AW2 AW2AV2 AV2AU2 AU2AT2 AT2AS2 AS2AR2 AR2AQ2 AQ2AP2 AP2AO2 AO2AN2 AN2AM2 AM2AL2 AL2AK2 AK2AJ2 AJ2AI2 AI2AH2 AH2AG2 AG2AG3 AG3AG4 AG4AG5 AG5AG6 AG6AG7 AG7AG8 AG8AG9 AG9AG10 AG10AF10"/>
    </vehicle>
    <vehicle id="29" depart="0.58">
        <route edges="BE19BE20 BE20BD20 BD20BC20 BC20BB20 BB20BA20 BA20AZ20 AZ20AY20 AY20AX20 AX20AW20 AW20AV20 AV20AU20 AU20AT20 AT20AS20 AS20AR20 AR20AQ20 AQ20AP20 AP20AO20 AO20AN20 AN20AM20 AM20AL20 AL20AK20 AK20AJ20 AJ20AI20 AI20AH20 AH20AG20 AG20AG19 AG19AG18 AG18AG17 AG17AG16 AG16AG15 AG15AG14 AG14AG13 AG13AG12 AG12AG13"/>
    </vehicle>
    <vehicle id="30" depart="0.60">
        <route edges="BZ29BY29 BY29BX29 BX29BW29 BW29BV29 BV29BU29 BU29BT29 BT29BS29 BS29BR29 BR29BQ29 BQ29BP29 BP29BO29 BO29BN29 BN29BM29 BM29BL29 BL29BK29 BK29BJ29 BJ29BI29 BI29BH29 BH29BG29 BG29BF29 BF29BE29 BE29BD29 BD29BC29 BC29BB29 BB29BA29 BA29AZ29 AZ29AY29 AY29AX29 AX29AW29 AW29AV29 AV29AU29 AU29AT29 AT29AS29 AS29AR29 AR29AQ29 AQ29AP29 AP29AO29 AO29AN29 AN29AM29 AM29AL29 AL29AK29 AK29AJ29 AJ29AI29 AI29AH29 AH29AG29 AG29AF29 AF29AE29 AE29AD29 AD29AC29 AC29AB29 AB29AB28 AB28AB27 AB27AB26 AB26AB25 AB25AB24 AB24AB23 AB23AB22 AB22AB21 AB21AB20 AB20AB19 AB19AB18 AB18AB17 AB17AC17 AC17AD17 AD17AE17 AE17AF17 AF17AG17 AG17AH17 AH17AI17 AI17AJ17 AJ17AK17 AK17AL17 AL17AM17 AM17AN17 AN17AO17 AO17AP17 AP17AQ17 AQ17AR17 AR17AS17 AS17AT17 AT17AU17 AU17AV17 AV17AW17 AW17AX17 AX17AY17 AY17AZ17 AZ17BA17 BA17BB17 BB17BC17 BC17BD17 BD17BE17 BE17BF17 BF17BG17 BG17BH17 BH17BI17 BI17BJ17 BJ17BK17 BK17BL17 BL17BM17 BM17BN17 BN17BO17 BO17BP17 BP17BQ17 BQ17BR17 BR17BS17 BS17BT17"/>
    </vehicle>
    <vehicle id="31" depart="0.62">
        <route edges="BM20BM19 BM19BL19 BL19BK19 BK19BJ19 BJ19BI19 BI19BI20 BI20BI21 BI21BI22 BI22BI23 BI23BI24 BI24BJ24"/>
    </vehicle>
    <vehicle id="32" depart="0.64">
        <route edges="BL19BL18 BL18BL19 BL19BM19 BM19BN19 BN19BO19 BO19BP19 BP19BQ19 BQ19BR19 BR19BS19 BS19BT19 BT19BU19 BU19BV19 BV19BW19 BW19BX19 BX19BY19 BY19BZ19 BZ19CA19 CA19CA18"/>
    </vehicle>
    <vehicle id="33" depart="0.66">
        <route edges="BA26BA27 BA27AZ27 AZ27AY27 AY27AX27 AX27AW27 AW27AV27 AV27AU27 AU27AT27 AT27AS27 AS27AR27 AR27AQ27 AQ27AP27 AP27AO27 AO27AN27 AN27AM27 AM27AL27 AL27AK27 AK27AJ27 AJ27AI27 AI27AH27 AH27AG27 AG27AF27 AF27AE27 AE27AD27 AD27AD26 AD26AD25 AD25AD24 AD24AD23 AD23AD22 AD22AE22"/>
    </vehicle>
    <vehicle id="34" depart="0.68">
        <route edges="BH25BI25 BI25BI26 BI26BI27 BI27BI28 BI28BI29 BI29BJ29 BJ29BK29 BK29BL29 BL29BM29 BM29BN29 BN29BO29 BO29BP29 BP29BQ29 BQ29BR29 BR29BS29 BS29BT29 BT29BU29 BU29BV29 BV29BW29 BW29BX29 BX29BY29 BY29BZ29 BZ29CA29 CA29CB29 CB29CC29 CC29CD29 CD29CE29 CE29CF29 CF29CE29"/>
    </vehicle>
    <vehicle id="35" depart="0.70">
        <route edges="AC15AC14 AC14AC15 AC15AC16 AC16AC17 AC17AC18 AC18AC19 AC19AD19 AD19AE19 AE19AF19 AF19AG19 AG19AH19 AH19AI19 AI19AJ19 AJ19AK19 AK19AL19 AL19AM19 AM19AN19 AN19AO19 AO19AP19 AP19AQ19 AQ19AR19 AR19AS19 AS19AT19 AT19AU19 AU19AV19 AV19AW19 AW19AX19 AX19AY19 AY19AZ19 AZ19BA19 BA19BB19 BB19BC19 BC19BD19 BD19BE19 BE19BF19 BF19BG19 BG19BH19 BH19BI19 BI19BJ19 BJ19BK19 BK19BL19 BL19BM19 BM19BN19 BN19BO19 BO19BP19 BP19BQ19 BQ19BR19"/>
    </vehicle>
    <vehicle id="36" depart="0.72">
        <route edges="AS21AS20 AS20AS21 AS21AT21 AT21AU21 AU21AV21 AV21AW21 AW21AX21 AX21AY21 AY21AZ21 AZ21BA21 BA21BB21 BB21BC21 BC21BD21 BD21BE21 BE21BF21 BF21BG21 BG21BH21 BH21BI21 BI21BJ21 BJ21BJ20"/>
    </vehicle>
    <vehicle id="37" depart="0.74">
        <route edges="BB27BC27 BC27BB27 BB27BB28 BB28BB29 BB29BB30 BB30BB1 BB1BB2 BB2BB3 BB3BB4 BB4BB5 BB5BB6 BB6BB5"/>
    </vehicle>
    <vehicle id="38" depart="0.76">
        <route edges="AN28AM28 AM28AL28 AL28AK28 AK28AJ28 AJ28AI28 AI28AH28 AH28AG28 AG28AF28 AF28AE28 AE28AD28 AD28AC28 AC28AC29 AC29AC30 AC30AC1 AC1AC2 AC2AC3 AC3AC4 AC4AC5 AC5AC6 AC6AC7 AC7AC8 AC8AC9 AC9AC10 AC10AD10 AD10AE10 AE10AF10 AF10AG10 AG10AH10 AH10AI10 AI10AJ10 AJ10AK10 AK10AL10 AL10AM10 AM10AN10 AN10AO10 AO10AP10 AP10AQ10 AQ10AR10 AR10AS10 AS10AT10 AT10AU10 AU10AV10 AV10AW10 AW10AX10 AX10AY10 AY10AZ10 AZ10AY10"/>
    </vehicle>
    <vehicle id="39" depart="0.78">
        <route edges="CG1CG2 CG2CF2 CF2CE2 CE2CD2 CD2CC2 CC2CB2 CB2CA2 CA2BZ2 BZ2BY2 BY2BX2 BX2BW2 BW2BV2 BV2BU2 BU2BT2 BT2BS2 BS2BR2 BR2BQ2 BQ2BP2 BP2BO2 BO2BN2 BN2BM2 BM2BL2 BL2BK2 BK2BJ2 BJ2BI2 BI2BH2 BH2BG2 BG2BF2 BF2BE2 BE2BD2 BD2BC2 BC2BB2 BB2BA2 BA2AZ2 AZ2AY2 AY2AX2 AX2AW2 AW2AV2 AV2AU2 AU2AT2 AT2AS2 AS2AR2 AR2AQ2 AQ2AP2 AP2AO2 AO2AN2 AN2AM2 AM2AL2 AL2AK2 AK2AJ2 AJ2AI2 AI2AI1 AI1AI30 AI30AI29"/>
    </vehicle>
    <vehicle id="40" depart="0.80">
        <route edges="AX5AY5 AY5AY4 AY4AY3 AY3AY2 AY2AY1 AY1AY30 AY30AY29 AY29AZ29 AZ29BA29 BA29BB29 BB29BC29 BC29BD29 BD29BE29 BE29BF29 BF29BG29 BG29BF29"/>
    </vehicle>
    <vehicle id="41" depart="0.82">
        <route edges="CE24CF24 CF24CE24 CE24CD24 CD24CC24 CC24CB24 CB24CA24 CA24BZ24 BZ24BY24 BY24BX24 BX24BW24 BW24BV24 BV24BU24 BU24BT24 BT24BS24 BS24BR24 BR24BQ24 BQ24BP24 BP24BO24 BO24BN24 BN24BM24 BM24BL24 BL24BK24 BK24BJ24 BJ24BI24 BI24BH24 BH24BG24 BG24BF24 BF24BE24 BE24BD24 BD24BC24 BC24BB24 BB24BA24 BA24AZ24 AZ24AY24 AY24AX24 AX24AW24 AW24AV24 AV24AU24 AU24AT24 AT24AS24 AS24AR24 AR24AQ24 AQ24AP24 AP24AO24 AO24AN24 AN24AM24 AM24AL24 AL24AK24 AK24AJ24 AJ24AI24 AI24AH24 AH24AG24 AG24AF24 AF24AE24 AE24AD24 AD24AC24 AC24AC25 AC25AC26 AC26AC27 AC27AC28 AC28AC29 AC29AC30 AC30AC1 AC1AC2 AC2AC3 AC3AC4 AC4AC5 AC5AD5 AD5AE5 AE5AF5 AF5AG5 AG5AH5 AH5AI5 AI5AJ5 AJ5AK5 AK5AL5 AL5AM5 AM5AN5 AN5AO5 AO5AP5 AP5AQ5 AQ5AR5 AR5AS5 AS5AT5 AT5AU5 AU5AV5 AV5AW5 AW5AW6"/>
    </vehicle>
    <vehicle id="42" depart="0.84">
        <route edges="AB3AC3 AC3AC2 AC2AC1 AC1AC30 AC30AC29 AC29AC28 AC28AC27 AC27AC26 AC26AC25 AC25AC24 AC24AC23 AC23AD23 AD23AE23 AE23AF23 AF23AG23 AG23AH23 AH23AI23 AI23AJ23 AJ23AK23 AK23AL23 AL23AM23 AM23AN23 AN23AO23 AO23AP23 AP23AQ23 AQ23AR23 AR23AS23 AS23AT23 AT23AU23 AU23AV23 AV23AW23 AW23AX23 AX23AY23 AY23AZ23 AZ23BA23 BA23BB23 BB23BC23 BC23BD23 BD23BE23 BE23BF23 BF23BG23 BG23BH23 BH23BI23 BI23BJ23 BJ23BK23 BK23BL23 BL23BM23 BM23BN23 BN23BO23 BO23BP23 BP23BQ23 BQ23BR23 BR23BS23 BS23BT23 BT23BU23 BU23BV23 BV23BW23 BW23BX23 BX23BY23 BY23BZ23"/>
    </vehicle>
    <vehicle id="43" depart="0.86">
        <route edges="AE29AE30 AE30AD30 AD30AC30 AC30AC1 AC1AC2 AC2AC3 AC3AC4 AC4AC5 AC5AC6 AC6AC7 AC7AC8 AC8AC9 AC9AC10 AC10AC11 AC11AD11 AD11AE11 AE11AF11 AF11AG11 AG11AH11 AH11AI11 AI11AJ11 AJ11AK11 AK11AL11 AL11AM11 AM11AN11 AN11AO11 AO11AP11 AP11AQ11 AQ11AR11 AR11AS11 AS11AT11 AT11AU11 AU11AV11 AV11AW11 AW11AX11 AX11AY11 AY11AZ11 AZ11BA11 BA11BB11 BB11BC11 BC11BD11 BD11BE11 BE11BF11 BF11BG11 BG11BH11 BH11BI11 BI11BJ11 BJ11BK11 BK11BL11 BL11BM11 BM11BN11 BN11BO11 BO11BP11 BP11BQ11 BQ11BR11 BR11BS11 BS11BT11 BT11BU11 BU11BV11 BV11BW11 BW11BX11 BX11BY11 BY11BZ11 BZ11CA11 CA11CB11 CB11CC11 CC11CD11 CD11CC11"/>
    </vehicle>
    <vehicle id="44" depart="0.88">
        <route edges="AO21AP21 AP21AO21 AO21AN21 AN21AM21 AM21AL21 AL21AK21 AK21AJ21 AJ21AI21 AI21AH21 AH21AG21 AG21AF21 AF21AE21 AE21AD21 AD21AC21 AC21AC22 AC22AC23 AC23AC24 AC24AC25 AC25AC26 AC26AC27 AC27AC28 AC28AC29 AC29AC30 AC30AC1 AC1AC2 AC2AC3 AC3AC4 AC4AC5 AC5AD5 AD5AE5 AE5AF5 AF5AG5 AG5AH5 AH5AI5 AI5AJ5 AJ5AK5 AK5AL5 AL5AM5 AM5AN5 AN5AO5 AO5AP5 AP5AQ5 AQ5AR5 AR5AS5 AS5AT5 AT5AU5 AU5AV5 AV5AW5 AW5AX5 AX5AY5 AY5AZ5"/>
    </vehicle>
    <vehicle id="45" depart="0.90">
        <route edges="AO17AO16 AO16AO17 AO17AO18 AO18AO19 AO19AO20 AO20AO21 AO21AO22 AO22AO23 AO23AP23 AP23AQ23 AQ23AR23 AR23AS23 AS23AT23 AT23AU23 AU23AV23 AV23AW23 AW23AX23 AX23AY23 AY23AZ23 AZ23BA23 BA23BB23"/>
    </vehicle>
    <vehicle id="46" depart="0.92">
        <route edges="AJ19AK19 AK19AK20 AK20AK21 AK21AL21 AL21AM21 AM21AN21 AN21AO21 AO21AP21 AP21AQ21 AQ21AR21 AR21AS21 AS21AT21 AT21AU21 AU21AV21 AV21AW21 AW21AX21 AX21AY21 AY21AZ21 AZ21BA21 BA21BB21 BB21BC21 BC21BD21 BD21BE21 BE21BF21 BF21BG21 BG21BH21 BH21BI21 BI21BJ21 BJ21BK21 BK21BL21 BL21BM21 BM21BN21 BN21BO21 BO21BP21 BP21BQ21 BQ21BR21 BR21BS21 BS21BT21 BT21BU21 BU21BV21 BV21BW21 BW21BX21 BX21BY21 BY21BZ21 BZ21CA21"/>
    </vehicle>
    <vehicle id="47" depart="0.94">
        <route edges="CH26CH25 CH25CG25 CG25CF25 CF25CE25 CE25CD25 CD25CC25 CC25CB25 CB25CA25 CA25BZ25 BZ25BY25 BY25BX25 BX25BW25 BW25BV25 BV25BU25 BU25BT25 BT25BS25 BS25BR25 BR25BQ25 BQ25BP25 BP25BO25 BO25BN25 BN25BM25 BM25BL25 BL25BK25 BK25BJ25 BJ25BI25 BI25BH25 BH25BG25 BG25BF25 BF25BE25 BE25BD25 BD25BC25 BC25BB25 BB25BA25 BA25AZ25 AZ25AY25 AY25AX25 AX25AW25 AW25AV25 AV25AU25 AU25AT25 AT25AS25 AS25AR25 AR25AQ25 AQ25AP25 AP25AO25 AO25AN25 AN25AM25 AM25AL25 AL25AK25 AK25AJ25 AJ25AI25 AI25AH25 AH25AG25 AG25AF25 AF25AE25 AE25AD25 AD25AD26 AD26AD27 AD27AD28 AD28AD29 AD29AD30 AD30AD1 AD1AD2 AD2AD3 AD3AC3"/>
    </vehicle>
    <vehicle id="48" depart="0.96">
        <route edges="BZ7BZ8 BZ8BY8 BY8BY7 BY7BY6 BY6BY5 BY5BY4 BY4BZ4"/>
    </vehicle>
    <vehicle id="49" depart="0.98">
        <route edges="BQ22BQ23 BQ23BP23 BP23BO23 BO23BN23 BN23BM23 BM23BL23 BL23BK23 BK23BJ23 BJ23BI23 BI23BH23 BH23BG23 BG23BF23 BF23BE23 BE23BD23 BD23BC23 BC23BB23 BB23BA23 BA23AZ23 AZ23AY23 AY23AX23 AX23AW23 AW23AV23 AV23AU23 AU23AT23 AT23AS23 AS23AR23 AR23AQ23 AQ23AP23 AP23AO23 AO23AN23 AN23AM23 AM23AL23 AL23AK23 AK23AJ23 AJ23AI23 AI23AH23 AH23AG23 AG23AF23 AF23AE23 AE23AD23 AD23AC23 AC23AC24 AC24AC25 AC25AC26 AC26AC27 AC27AC28 AC28AC29 AC29AC30 AC30AC1 AC1AC2 AC2AC3 AC3AC4 AC4AC5 AC5AC6 AC6AC7 AC7AD7 AD7AE7 AE7AF7 AF7AG7 AG7AH7 AH7AI7 AI7AJ7 AJ7AK7 AK7AL7 AL7AM7 AM7AN7 AN7AO7 AO7AP7 AP7AQ7 AQ7AR7 AR7AS7 AS7AT7 AT7AU7 AU7AV7 AV7AW7 AW7AX7 AX7AY7 AY7AZ7 AZ7BA7 BA7BB7 BB7BC7 BC7BC8"/>
    </vehicle>
    <vehicle id="50" depart="1.00">
        <route edges="BJ23BJ24 BJ24BI24 BI24BH24 BH24BG24 BG24BF24 BF24BE24 BE24BD24 BD24BC24 BC24BB24 BB24BA24 BA24AZ24 AZ24AY24 AY24AX24 AX24AW24 AW24AV24 AV24AU24 AU24AT24 AT24AS24 AS24AR24 AR24AQ24 AQ24AP24 AP24AO24 AO24AN24 AN24AM24 AM24AL24 AL24AK24 AK24AJ24 AJ24AI24 AI24AH24 AH24AG24 AG24AF24 AF24AE24 AE24AD24 AD24AC24 AC24AC23 AC23AC24"/>
    </vehicle>
    <vehicle id="51" depart="1.02">
        <route edges="AF26AE26 AE26AE25 AE25AE24 AE24AE23 AE23AE22 AE22AE21 AE21AE20 AE20AE19 AE19AF19 AF19AG19 AG19AH19 AH19AI19 AI19AJ19 AJ19AK19 AK19AL19 AL19AM19 AM19AN19"/>
    </vehicle>
    <vehicle id="52" depart="1.04">
        <route edges="BC3BD3 BD3BC3 BC3BB3 BB3BA3 BA3AZ3 AZ3AY3 AY3AX3 AX3AW3 AW3AV3 AV3AU3 AU3AT3 AT3AS3 AS3AR3 AR3AQ3 AQ3AP3 AP3AO3 AO3AN3 AN3AM3 AM3AL3 AL3AK3 AK3AJ3 AJ3AI3 AI3AH3 AH3AI3"/>
    </vehicle>
    <vehicle id="53" depart="1.06">
        <route edges="AD20AC20 AC20AC19 AC19AC18 AC18AC17 AC17AD17"/>
    </vehicle>
    <vehicle id="54" depart="1.08">
        <route edges="BR30BR29 BR29BR30 BR30BR1 BR1BR2 BR2BR3 BR3BS3 BS3BT3 BT3BU3 BU3BV3 BV3BW3 BW3BX3 BX3BY3 BY3BZ3 BZ3CA3 CA3CB3 CB3CC3 CC3CD3 CD3CE3 CE3CF3 CF3CG3 CG3CH3 CH3CI3 CI3CI4"/>
    </vehicle>
    <vehicle id="55" depart="1.10">
        <route edges="BK27BK26 BK26BJ26 BJ26BI26 BI26BH26 BH26BG26 BG26BF26 BF26BE26 BE26BE25 BE25BE24 BE24BE23 BE23BF23"/>
    </vehicle>
    <vehicle id="56" depart="1.12">
        <route edges="BZ9CA9 CA9BZ9 BZ9BY9 BY9BX9 BX9BW9 BW9BV9 BV9BU9 BU9BT9 BT9BS9 BS9BR9 BR9BQ9 BQ9BP9 BP9BO9 BO9BN9 BN9BM9 BM9BL9 BL9BK9 BK9BJ9 BJ9BI9 BI9BH9 BH9BG9 BG9BF9 BF9BE9 BE9BD9 BD9BC9 BC9BB9 BB9BA9 BA9AZ9 AZ9AY9 AY9AX9 AX9AW9 AW9AV9 AV9AU9 AU9AT9 AT9AS9 AS9AR9 AR9AQ9 AQ9AP9 AP9AO9 AO9AN9 AN9AM9 AM9AL9 AL9AK9 AK9AJ9 AJ9AI9 AI9AH9 AH9AG9 AG9AF9 AF9AE9 AE9AD9 AD9AC9 AC9AC10 AC10AC11 AC11AC12 AC12AC13 AC13AC14 AC14AC15 AC15AC16 AC16AC17 AC17AC18 AC18AC19 AC19AC20 AC20AC21 AC21AC22 AC22AC23 AC23AD23 AD23AE23 AE23AF23 AF23AG23 AG23AH23 AH23AI23 AI23AJ23 AJ23AK23 AK23AL23 AL23AM23 AM23AN23 AN23AO23 AO23AP23 AP23AQ23 AQ23AR23 AR23AS23 AS23AT23 AT23AU23 AU23AV23 AV23AW23 AW23AX23 AX23AY23 AY23AZ23 AZ23BA23 BA23BB23 BB23BC23 BC23BD23 BD23BE23 BE23BF23 BF23BG23 BG23BF23"/>
    </vehicle>
    <vehicle id="57" depart="1.14">
        <route edges="AL19AM19 AM19AM18 AM18AM17 AM17AM16 AM16AM15 AM15AM14 AM14AM13 AM13AM12 AM12AM11 AM11AM10 AM10AM9 AM9AN9 AN9AO9 AO9AP9 AP9AQ9 AQ9AR9 AR9AS9 AS9AT9 AT9AU9 AU9AV9 AV9AW9 AW9AX9 AX9AY9 AY9AZ9 AZ9BA9 BA9BB9 BB9BC9 BC9BD9 BD9BE9 BE9BF9 BF9BG9 BG9BH9 BH9BI9 BI9BJ9 BJ9BK9 BK9BL9 BL9BM9 BM9BN9 BN9BO9 BO9BP9 BP9BQ9 BQ9BR9 BR9BS9 BS9BT9"/>
    </vehicle>
    <vehicle id="58" depart="1.16">
        <route edges="AL8AL7 AL7AK7 AK7AJ7 AJ7AI7 AI7AH7 AH7AG7 AG7AF7 AF7AE7 AE7AD7 AD7AC7 AC7AC8 AC8AC9 AC9AC10 AC10AC11 AC11AC12 AC12AC13 AC13AC14 AC14AC15 AC15AC16 AC16AC17 AC17AC18 AC18AC19 AC19AD19 AD19AE19 AE19AF19 AF19AG19 AG19AH19 AH19AI19 AI19AJ19 AJ19AK19 AK19AL19 AL19AM19 AM19AN19 AN19AO19 AO19AO18"/>
    </vehicle>
    <vehicle id="59" depart="1.18">
        <route edges="CF14CF15 CF15CE15 CE15CD15 CD15CC15 CC15CB15 CB15CA15 CA15BZ15 BZ15BY15 BY15BX15 BX15BW15 BW15BV15 BV15BU15 BU15BT15 BT15BS15 BS15BR15 BR15BQ15 BQ15BP15 BP15BO15 BO15BN15 BN15BM15 BM15BL15 BL15BK15 BK15BJ15 BJ15BI15 BI15BH15 BH15BG15 BG15BF15 BF15BE15 BE15BD15 BD15BC15 BC15BB15 BB15BA15 BA15AZ15 AZ15AY15 AY15AX15 AX15AW15 AW15AV15 AV15AU15 AU15AT15 AT15AS15 AS15AR15 AR15AQ15 AQ15AQ16 AQ16AQ17 AQ17AQ18 AQ18AQ19 AQ19AQ20 AQ20AQ21 AQ21AR21"/>
    </vehicle>
    <vehicle id="60" depart="1.20">
        <route edges="AQ26AP26 AP26AP27 AP27AP28 AP28AP29 AP29AP30 AP30AP1 AP1AP2 AP2AP3 AP3AQ3 AQ3AR3 AR3AS3 AS3AT3 AT3AU3 AU3AV3 AV3AW3 AW3AX3 AX3AY3 AY3AZ3 AZ3BA3 BA3BB3 BB3BC3 BC3BD3 BD3BE3 BE3BD3"/>
    </vehicle>
    <vehicle id="61" depart="1.22">
        <route edges="BJ28BI28 BI28BH28 BH28BH29 BH29BH30 BH30BH1 BH1BH2 BH2BH3 BH3BG3"/>
    </vehicle>
    <vehicle id="62" depart="1.24">
        <route edges="CG3CG4 CG4CF4 CF4CE4 CE4CD4 CD4CC4 CC4CB4 CB4CA4 CA4BZ4 BZ4BY4 BY4BX4 BX4BW4 BW4BV4 BV4BU4 BU4BT4 BT4BS4 BS4BR4 BR4BQ4 BQ4BP4 BP4BO4 BO4BN4 BN4BM4 BM4BL4 BL4BK4 BK4BJ4 BJ4BI4 BI4BH4 BH4BG4 BG4BF4 BF4BE4 BE4BD4 BD4BC4 BC4BC5 BC5BC6 BC6BC7 BC7BC8 BC8BC9 BC9BC10 BC10BC9"/>
    </vehicle>
    <vehicle id="63" depart="1.26">
        <route edges="BZ26BZ27 BZ27BY27 BY27BX27 BX27BW27 BW27BV27 BV27BU27 BU27BT27 BT27BS27 BS27BR27 BR27BQ27 BQ27BP27 BP27BO27 BO27BN27 BN27BM27 BM27BL27 BL27BK27 BK27BJ27 BJ27BI27 BI27BH27 BH27BG27 BG27BF27 BF27BE27 BE27BD27 BD27BC27 BC27BB27 BB27BA27 BA27AZ27 AZ27AY27 AY27AX27 AX27AW27 AW27AV27 AV27AU27 AU27AT27 AT27AS27 AS27AR27 AR27AQ27 AQ27AP27 AP27AO27 AO27AN27 AN27AM27 AM27AM26 AM26AM25 AM25AM24 AM24AM23 AM23AM22 AM22AM21 AM21AM22"/>
    </vehicle>
    <vehicle id="64" depart="1.28">
        <route edges="AX22AW22 AW22AW23 AW23AW24 AW24AW25 AW25AW26 AW26AW27 AW27AW28 AW28AW29 AW29AW30 AW30AX30 AX30AY30 AY30AZ30 AZ30BA30 BA30BB30 BB30BC30 BC30BD30 BD30BE30 BE30BF30 BF30BG30 BG30BH30 BH30BI30 BI30BJ30 BJ30BK30 BK30BL30 BL30BM30 BM30BN30 BN30BO30"/>
    </vehicle>
    <vehicle id="65" depart="1.30">
        <route edges="BT7BT8 BT8BS8 BS8BR8 BR8BQ8 BQ8BP8 BP8BO8 BO8BN8 BN8BM8 BM8BL8 BL8BK8 BK8BJ8 BJ8BI8 BI8BH8 BH8BG8 BG8BF8 BF8BE8 BE8BD8 BD8BC8 BC8BB8 BB8BA8 BA8AZ8 AZ8AY8 AY8AX8 AX8AW8 AW8AV8 AV8AU8 AU8AT8 AT8AS8 AS8AR8 AR8AQ8 AQ8AP8 AP8AO8 AO8AN8 AN8AM8 AM8AL8 AL8AK8 AK8AJ8 AJ8AI8 AI8AH8 AH8AG8 AG8AF8 AF8AF7 AF7AF6 AF6AF5 AF5AF4 AF4AF3"/>
    </vehicle>
    <vehicle id="66" depart="1.32">
        <route edges="BF24BF25 BF25BE25 BE25BD25 BD25BC25 BC25BB25 BB25BA25 BA25AZ25 AZ25AY25 AY25AX25 AX25AW25 AW25AV25 AV25AU25 AU25AT25 AT25AS25 AS25AS26 AS26AS27 AS27AS28"/>
    </vehicle>
    <vehicle id="67" depart="1.34">
        <route edges="AY14AZ14 AZ14AY14 AY14AX14 AX14AW14 AW14AV14 AV14AU14 AU14AT14 AT14AS14 AS14AR14 AR14AQ14 AQ14AP14 AP14AO14 AO14AN14 AN14AM14 AM14AL14 AL14AK14 AK14AJ14 AJ14AI14 AI14AH14 AH14AG14 AG14AF14 AF14AE14 AE14AD14 AD14AC14 AC14AB14 AB14AB13 AB13AB12 AB12AB11 AB11AB10 AB10AB9 AB9AB8 AB8AB7 AB7AB6 AB6AB5 AB5AB4 AB4AB3 AB3AB2 AB2AB1 AB1AB30 AB30AB29 AB29AC29"/>
    </vehicle>
    <vehicle id="68" depart="1.36">