<?xml version="1.0" encoding="UTF-8"?>

<!-- generated on 04/01/19 23:18:13 by Eclipse SUMO duarouter Version 1.1.0
<configuration xmlns:xsi="http://www.w3.org/2001/XMLSchema-instance" xsi:noNamespaceSchemaLocation="http://sumo.dlr.de/xsd/duarouterConfiguration.xsd">

    <input>
        <net-file value="net.net.xml"/>
        <route-files value="trips.trips.xml"/>
    </input>

    <output>
        <output-file value="out-30-60-40/./rou500.rou.xml"/>
        <alternatives-output value="out-30-60-40/./rou500.rou.alt.xml"/>
    </output>

    <time>
        <begin value="0.0"/>
        <end value="100.0"/>
    </time>

    <report>
        <no-warnings value="true"/>
        <ignore-errors value="true"/>
        <no-step-log value="true"/>
    </report>

</configuration>
-->

<routes xmlns:xsi="http://www.w3.org/2001/XMLSchema-instance" xsi:noNamespaceSchemaLocation="http://sumo.dlr.de/xsd/routes_file.xsd">
    <vehicle id="0" depart="0.00">
        <route edges="CG23CF23 CF23CE23 CE23CD23 CD23CC23 CC23CB23 CB23CA23 CA23BZ23 BZ23BY23 BY23BX23 BX23BW23 BW23BV23 BV23BU23 BU23BT23 BT23BS23 BS23BR23 BR23BQ23 BQ23BP23 BP23BO23 BO23BN23 BN23BM23 BM23BL23 BL23BK23 BK23BJ23 BJ23BI23 BI23BH23 BH23BG23 BG23BF23 BF23BE23 BE23BD23 BD23BC23 BC23BB23 BB23BA23 BA23AZ23 AZ23AY23 AY23AX23 AX23AW23 AW23AV23 AV23AU23 AU23AT23 AT23AS23 AS23AR23 AR23AQ23 AQ23AP23 AP23AO23 AO23AN23 AN23AM23 AM23AL23 AL23AK23 AK23AJ23 AJ23AI23 AI23AH23 AH23AG23 AG23AF23 AF23AE23 AE23AD23 AD23AC23 AC23AC24 AC24AC25 AC25AC26 AC26AC27 AC27AC28 AC28AC29 AC29AC30 AC30AC1 AC1AC2 AC2AC3 AC3AC4 AC4AC5 AC5AC6 AC6AD6 AD6AE6 AE6AF6 AF6AG6 AG6AH6 AH6AI6 AI6AJ6 AJ6AK6 AK6AL6 AL6AM6 AM6AN6 AN6AO6 AO6AP6 AP6AQ6 AQ6AR6 AR6AS6 AS6AT6 AT6AU6 AU6AV6 AV6AW6 AW6AX6 AX6AY6 AY6AZ6 AZ6BA6 BA6BB6 BB6BC6 BC6BD6 BD6BE6 BE6BF6 BF6BG6 BG6BH6 BH6BI6 BI6BJ6 BJ6BK6 BK6BL6 BL6BM6 BM6BN6 BN6BO6 BO6BP6 BP6BQ6 BQ6BR6 BR6BS6 BS6BT6 BT6BU6 BU6BV6 BV6BW6 BW6BX6 BX6BY6 BY6BZ6 BZ6CA6 CA6CB6 CB6CC6 CC6CD6 CD6CE6 CE6CF6 CF6CG6 CG6CH6"/>
    </vehicle>
    <vehicle id="1" depart="0.20">
        <route edges="AN4AN5 AN5AN6 AN6AN7 AN7AN8 AN8AN9 AN9AN10 AN10AN11 AN11AN12 AN12AN13 AN13AN14 AN14AO14 AO14AP14 AP14AQ14 AQ14AR14 AR14AR13"/>
    </vehicle>
    <vehicle id="2" depart="0.40">
        <route edges="AV13AV14 AV14AU14 AU14AT14 AT14AS14 AS14AR14 AR14AQ14 AQ14AP14 AP14AO14 AO14AN14 AN14AM14 AM14AL14 AL14AK14 AK14AJ14 AJ14AI14 AI14AH14 AH14AG14 AG14AF14 AF14AE14 AE14AD14 AD14AC14 AC14AC15 AC15AC16 AC16AC17 AC17AC18 AC18AC19 AC19AC20 AC20AC21 AC21AC22 AC22AC23 AC23AC24 AC24AC25 AC25AC26 AC26AC27 AC27AD27 AD27AE27 AE27AF27 AF27AG27 AG27AH27 AH27AH26"/>
    </vehicle>
    <vehicle id="3" depart="0.60">
        <route edges="AM12AN12 AN12AM12 AM12AL12 AL12AK12 AK12AJ12 AJ12AI12 AI12AH12 AH12AG12 AG12AF12 AF12AE12 AE12AE11 AE11AE10 AE10AE9 AE9AE8 AE8AE7 AE7AE6 AE6AE7"/>
    </vehicle>
    <vehicle id="4" depart="0.80">
        <route edges="AQ20AR20 AR20AQ20 AQ20AP20 AP20AO20 AO20AN20 AN20AN19 AN19AN18 AN18AN17 AN17AN16 AN16AN15 AN15AN14 AN14AN15"/>
    </vehicle>
    <vehicle id="5" depart="1.00">
        <route edges="BL27BM27 BM27BM26 BM26BN26 BN26BO26 BO26BP26"/>
    </vehicle>
    <vehicle id="6" depart="1.20">
        <route edges="BT22BS22 BS22BR22 BR22BQ22 BQ22BP22 BP22BO22 BO22BN22 BN22BM22 BM22BL22 BL22BK22 BK22BJ22 BJ22BI22 BI22BH22 BH22BG22 BG22BF22 BF22BE22 BE22BD22 BD22BC22 BC22BB22 BB22BA22 BA22AZ22 AZ22AY22 AY22AX22 AX22AW22 AW22AV22 AV22AU22 AU22AT22 AT22AS22 AS22AR22 AR22AQ22 AQ22AP22 AP22AO22 AO22AN22 AN22AM22 AM22AL22 AL22AK22 AK22AJ22 AJ22AI22 AI22AH22 AH22AG22 AG22AF22 AF22AE22 AE22AD22 AD22AC22 AC22AB22 AB22AB21 AB21AB20 AB20AB19 AB19AB18 AB18AB17 AB17AB16 AB16AB15 AB15AB14 AB14AB13 AB13AB12 AB12AB11 AB11AC11 AC11AD11 AD11AE11 AE11AF11 AF11AG11 AG11AH11 AH11AI11 AI11AJ11 AJ11AK11 AK11AL11 AL11AM11 AM11AN11 AN11AO11 AO11AP11 AP11AQ11 AQ11AR11 AR11AS11 AS11AT11 AT11AU11 AU11AV11 AV11AW11 AW11AX11 AX11AY11 AY11AZ11 AZ11BA11 BA11BB11 BB11BC11 BC11BD11 BD11BE11 BE11BF11 BF11BG11 BG11BH11 BH11BI11 BI11BJ11 BJ11BK11 BK11BL11 BL11BM11 BM11BN11 BN11BO11 BO11BO12"/>
    </vehicle>
    <vehicle id="7" depart="1.40">
        <route edges="AE5AF5 AF5AF6 AF6AF7 AF7AF8 AF8AF9 AF9AF10 AF10AF11 AF11AF12 AF12AG12 AG12AH12 AH12AH11"/>
    </vehicle>
    <vehicle id="8" depart="1.60">
        <route edges="CF7CG7 CG7CF7 CF7CE7 CE7CD7 CD7CC7 CC7CB7 CB7CA7 CA7BZ7 BZ7BY7 BY7BX7 BX7BW7 BW7BV7 BV7BU7 BU7BT7 BT7BS7 BS7BR7 BR7BQ7 BQ7BP7 BP7BO7 BO7BN7 BN7BM7 BM7BL7 BL7BK7 BK7BJ7 BJ7BI7 BI7BH7 BH7BG7 BG7BF7 BF7BE7 BE7BD7 BD7BC7 BC7BB7 BB7BA7 BA7AZ7 AZ7AY7 AY7AX7 AX7AW7 AW7AV7 AV7AU7 AU7AT7 AT7AS7 AS7AR7 AR7AQ7 AQ7AP7 AP7AO7 AO7AN7 AN7AM7 AM7AM8 AM8AM9 AM9AM10 AM10AM11 AM11AN11"/>
    </vehicle>
    <vehicle id="9" depart="1.80">
        <route edges="AJ20AI20 AI20AI21 AI21AJ21 AJ21AK21 AK21AL21 AL21AK21"/>
    </vehicle>
    <vehicle id="10" depart="2.00">
        <route edges="AX14AX15 AX15AW15 AW15AV15 AV15AU15 AU15AT15 AT15AS15 AS15AR15 AR15AQ15 AQ15AP15 AP15AO15 AO15AN15 AN15AM15 AM15AL15 AL15AK15 AK15AJ15 AJ15AI15 AI15AH15 AH15AG15 AG15AF15 AF15AE15 AE15AD15 AD15AC15 AC15AC16 AC16AC17 AC17AC18 AC18AC19 AC19AC20 AC20AC21 AC21AC22 AC22AC23 AC23AC24 AC24AC25 AC25AC26 AC26AC27 AC27AC28 AC28AD28 AD28AE28 AE28AF28 AF28AG28 AG28AH28 AH28AI28 AI28AJ28 AJ28AK28 AK28AL28 AL28AM28 AM28AN28 AN28AO28 AO28AP28 AP28AQ28 AQ28AR28 AR28AS28 AS28AT28 AT28AU28 AU28AV28 AV28AW28 AW28AX28 AX28AY28 AY28AZ28 AZ28BA28 BA28BB28 BB28BC28 BC28BD28 BD28BE28 BE28BF28 BF28BG28 BG28BH28 BH28BI28 BI28BJ28 BJ28BK28 BK28BL28 BL28BL29"/>
    </vehicle>
    <vehicle id="11" depart="2.20">
        <route edges="BC1BC2 BC2BB2 BB2BA2 BA2AZ2 AZ2AY2 AY2AX2 AX2AW2 AW2AV2 AV2AV3 AV3AV4 AV4AV5 AV5AV6 AV6AV7 AV7AV8"/>
    </vehicle>
    <vehicle id="12" depart="2.40">
        <route edges="BU26BV26 BV26BU26 BU26BT26 BT26BS26 BS26BR26 BR26BQ26 BQ26BP26 BP26BO26 BO26BN26 BN26BM26 BM26BL26 BL26BK26 BK26BJ26 BJ26BI26 BI26BH26 BH26BG26 BG26BF26 BF26BE26 BE26BD26 BD26BC26 BC26BB26 BB26BA26 BA26AZ26 AZ26AY26 AY26AX26 AX26AW26 AW26AV26 AV26AU26 AU26AT26 AT26AS26 AS26AR26 AR26AQ26 AQ26AP26 AP26AO26 AO26AN26 AN26AM26 AM26AL26 AL26AK26 AK26AJ26 AJ26AI26 AI26AH26 AH26AH27 AH27AH28 AH28AG28"/>
    </vehicle>
    <vehicle id="13" depart="2.60">
        <route edges="BD23BE23 BE23BD23 BD23BC23 BC23BB23 BB23BA23 BA23AZ23 AZ23AY23 AY23AX23 AX23AW23 AW23AV23 AV23AU23 AU23AT23 AT23AS23 AS23AR23 AR23AQ23 AQ23AP23 AP23AO23 AO23AN23 AN23AM23 AM23AL23 AL23AK23 AK23AJ23 AJ23AI23 AI23AI24 AI24AI25 AI25AI26 AI26AI27 AI27AI28 AI28AI29 AI29AI30 AI30AI1 AI1AI2 AI2AH2"/>
    </vehicle>
    <vehicle id="14" depart="2.80">
        <route edges="CH17CI17 CI17CH17 CH17CG17 CG17CF17 CF17CE17 CE17CD17 CD17CC17 CC17CB17 CB17CA17 CA17BZ17 BZ17BY17 BY17BX17 BX17BW17 BW17BV17 BV17BU17 BU17BT17 BT17BS17 BS17BR17 BR17BQ17 BQ17BP17 BP17BO17 BO17BN17 BN17BM17 BM17BL17 BL17BK17 BK17BJ17 BJ17BI17 BI17BH17 BH17BG17 BG17BF17 BF17BE17 BE17BD17 BD17BC17 BC17BB17 BB17BA17 BA17AZ17 AZ17AY17 AY17AX17 AX17AW17 AW17AV17 AV17AU17 AU17AT17 AT17AS17 AS17AR17 AR17AQ17 AQ17AP17 AP17AO17 AO17AN17 AN17AM17 AM17AL17 AL17AK17 AK17AJ17 AJ17AI17 AI17AH17 AH17AH16 AH16AH15 AH15AH14 AH14AH13 AH13AH12 AH12AH11"/>
    </vehicle>
    <vehicle id="15" depart="3.00">
        <route edges="BN5BM5 BM5BN5 BN5BO5 BO5BP5 BP5BQ5 BQ5BR5 BR5BS5 BS5BT5 BT5BU5 BU5BV5 BV5BV4"/>
    </vehicle>
    <vehicle id="16" depart="3.20">
        <route edges="AU23AU24 AU24AU25 AU25AU26 AU26AU27 AU27AU28 AU28AU29 AU29AU30 AU30AV30 AV30AW30 AW30AX30 AX30AY30 AY30AZ30 AZ30BA30 BA30BB30 BB30BC30 BC30BD30 BD30BE30 BE30BF30 BF30BG30 BG30BH30 BH30BI30 BI30BJ30 BJ30BK30 BK30BL30 BL30BM30 BM30BN30 BN30BO30 BO30BP30 BP30BQ30 BQ30BP30"/>
    </vehicle>
    <vehicle id="17" depart="3.40">
        <route edges="AI15AH15 AH15AH16 AH16AH17 AH17AH18 AH18AH19 AH19AH20 AH20AI20 AI20AJ20 AJ20AK20 AK20AL20 AL20AM20 AM20AN20 AN20AO20 AO20AP20 AP20AQ20 AQ20AR20 AR20AS20 AS20AT20 AT20AU20 AU20AV20 AV20AW20 AW20AX20 AX20AY20 AY20AZ20 AZ20BA20 BA20BB20 BB20BC20 BC20BD20 BD20BE20 BE20BF20 BF20BG20 BG20BH20 BH20BI20 BI20BJ20 BJ20BK20 BK20BL20 BL20BM20 BM20BN20 BN20BO20 BO20BP20 BP20BQ20 BQ20BR20 BR20BS20 BS20BT20 BT20BU20 BU20BV20 BV20BW20 BW20BX20 BX20BY20 BY20BZ20 BZ20CA20 CA20CB20 CB20CC20 CC20CD20 CD20CE20 CE20CF20 CF20CG20 CG20CH20"/>
    </vehicle>
    <vehicle id="18" depart="3.60">
        <route edges="AF26AF25 AF25AE25 AE25AD25 AD25AC25 AC25AC26 AC26AC27 AC27AC28 AC28AC29 AC29AC30 AC30AC1 AC1AC2 AC2AC3 AC3AC4 AC4AC5 AC5AC6 AC6AC7 AC7AD7 AD7AE7 AE7AF7 AF7AG7 AG7AH7 AH7AI7 AI7AJ7 AJ7AK7 AK7AL7 AL7AM7 AM7AN7 AN7AO7 AO7AP7 AP7AQ7 AQ7AR7 AR7AS7 AS7AT7 AT7AU7 AU7AV7 AV7AW7 AW7AX7 AX7AY7 AY7AZ7 AZ7BA7 BA7BB7 BB7BC7 BC7BD7 BD7BE7 BE7BF7 BF7BG7 BG7BH7 BH7BI7 BI7BJ7 BJ7BK7 BK7BL7 BL7BM7 BM7BN7 BN7BO7 BO7BP7 BP7BQ7 BQ7BR7 BR7BS7"/>
    </vehicle>
    <vehicle id="19" depart="3.80">
        <route edges="BJ2BI2 BI2BH2 BH2BG2 BG2BF2 BF2BE2 BE2BD2 BD2BC2 BC2BB2 BB2BA2 BA2AZ2 AZ2AY2 AY2AX2 AX2AW2 AW2AV2 AV2AU2 AU2AT2 AT2AS2 AS2AR2 AR2AR3 AR3AR4 AR4AR5 AR5AR6 AR6AR7"/>
    </vehicle>
    <vehicle id="20" depart="4.00">
        <route edges="BK10BK9 BK9BK8 BK8BK7 BK7BK6 BK6BK5 BK5BK4 BK4BK3 BK3BK2 BK2BL2 BL2BM2 BM2BN2 BN2BO2 BO2BP2 BP2BQ2 BQ2BR2 BR2BS2 BS2BT2 BT2BU2 BU2BV2 BV2BV1"/>
    </vehicle>
    <vehicle id="21" depart="4.20">
        <route edges="AP28AQ28 AQ28AQ29 AQ29AQ30 AQ30AQ1 AQ1AQ2 AQ2AQ3 AQ3AQ4 AQ4AR4 AR4AS4 AS4AT4 AT4AU4 AU4AV4 AV4AW4 AW4AX4 AX4AY4 AY4AZ4 AZ4BA4 BA4BB4 BB4BC4"/>
    </vehicle>
    <vehicle id="22" depart="4.40">
        <route edges="AH5AH6 AH6AH7 AH7AH8 AH8AH9 AH9AH10 AH10AH11 AH11AH12 AH12AI12 AI12AJ12 AJ12AK12 AK12AL12 AL12AM12 AM12AN12 AN12AO12 AO12AP12 AP12AQ12 AQ12AR12 AR12AS12 AS12AT12 AT12AU12 AU12AV12 AV12AW12 AW12AX12 AX12AY12 AY12AZ12 AZ12BA12 BA12BB12 BB12BC12 BC12BD12 BD12BE12 BE12BF12 BF12BG12 BG12BH12 BH12BI12 BI12BJ12 BJ12BK12 BK12BL12 BL12BM12 BM12BN12 BN12BN11"/>
    </vehicle>
    <vehicle id="23" depart="4.60">
        <route edges="CH1CH30 CH30CG30 CG30CF30 CF30CE30 CE30CD30 CD30CC30 CC30CB30 CB30CA30 CA30BZ30 BZ30BY30 BY30BX30 BX30BW30 BW30BV30 BV30BU30 BU30BT30 BT30BS30 BS30BR30 BR30BQ30 BQ30BP30 BP30BO30 BO30BN30 BN30BM30 BM30BL30 BL30BK30 BK30BJ30 BJ30BI30 BI30BH30 BH30BG30 BG30BF30 BF30BE30 BE30BD30 BD30BC30 BC30BB30 BB30BA30 BA30AZ30 AZ30AY30 AY30AX30 AX30AW30 AW30AV30 AV30AU30 AU30AT30 AT30AS30 AS30AR30 AR30AQ30 AQ30AP30 AP30AO30 AO30AN30 AN30AM30 AM30AL30 AL30AK30 AK30AJ30 AJ30AI30 AI30AH30 AH30AG30 AG30AF30 AF30AE30 AE30AD30 AD30AC30 AC30AB30 AB30AB29 AB29AB28 AB28AB27 AB27AB26 AB26AB25 AB25AB24 AB24AB23 AB23AB22 AB22AB21 AB21AB20 AB20AB19 AB19AB18 AB18AB17 AB17AB16 AB16AC16 AC16AD16 AD16AE16 AE16AF16 AF16AG16 AG16AH16 AH16AI16 AI16AJ16 AJ16AK16 AK16AL16 AL16AM16 AM16AN16 AN16AO16 AO16AP16 AP16AQ16 AQ16AR16 AR16AS16 AS16AT16 AT16AU16 AU16AV16 AV16AW16 AW16AX16 AX16AY16 AY16AZ16 AZ16BA16 BA16BB16 BB16BC16 BC16BD16 BD16BE16 BE16BF16 BF16BG16 BG16BH16 BH16BI16 BI16BJ16 BJ16BK16 BK16BL16 BL16BM16 BM16BN16 BN16BO16 BO16BP16 BP16BQ16 BQ16BR16 BR16BS16 BS16BT16 BT16BU16 BU16BV16 BV16BV17"/>
    </vehicle>
    <vehicle id="24" depart="4.80">
        <route edges="AU26AU27 AU27AU28 AU28AU29 AU29AU30 AU30AU1 AU1AU2 AU2AU3 AU3AU4 AU4AU5 AU5AU6 AU6AV6 AV6AW6 AW6AX6 AX6AY6 AY6AZ6 AZ6BA6 BA6BB6 BB6BC6 BC6BD6 BD6BE6 BE6BF6 BF6BG6 BG6BH6 BH6BI6 BI6BJ6 BJ6BK6 BK6BL6 BL6BM6 BM6BN6 BN6BO6 BO6BP6 BP6BQ6 BQ6BR6 BR6BS6 BS6BT6 BT6BU6 BU6BV6 BV6BW6 BW6BX6 BX6BY6 BY6BZ6 BZ6CA6 CA6CB6 CB6CC6 CC6CD6 CD6CE6 CE6CF6 CF6CG6 CG6CH6 CH6CH7"/>
    </vehicle>
    <vehicle id="25" depart="5.00">
        <route edges="AR9AR8 AR8AR9 AR9AR10 AR10AR11 AR11AR12 AR12AR13 AR13AS13 AS13AT13 AT13AU13 AU13AV13 AV13AW13 AW13AW14"/>
    </vehicle>
    <vehicle id="26" depart="5.20">
        <route edges="BD21BE21 BE21BD21 BD21BC21 BC21BB21 BB21BA21 BA21AZ21 AZ21AZ20 AZ20AZ19 AZ19AZ18 AZ18AZ17 AZ17AZ16"/>
    </vehicle>
    <vehicle id="27" depart="5.40">
        <route edges="CE25CD25 CD25CC25 CC25CB25 CB25CA25 CA25BZ25 BZ25BY25 BY25BX25 BX25BW25 BW25BV25 BV25BU25 BU25BT25 BT25BS25 BS25BR25 BR25BQ25 BQ25BP25 BP25BO25 BO25BN25 BN25BM25 BM25BL25 BL25BK25 BK25BK26 BK26BJ26"/>
    </vehicle>
    <vehicle id="28" depart="5.60">
        <route edges="BG30BG1 BG1BF1 BF1BE1 BE1BD1 BD1BC1 BC1BB1 BB1BA1 BA1AZ1 AZ1AY1 AY1AX1 AX1AW1 AW1AV1 AV1AU1 AU1AT1 AT1AS1 AS1AR1 AR1AQ1 AQ1AP1 AP1AO1 AO1AN1 AN1AM1 AM1AL1 AL1AK1 AK1AJ1 AJ1AI1 AI1AH1 AH1AG1 AG1AF1 AF1AE1 AE1AD1 AD1AC1 AC1AB1 AB1AB30 AB30AB29 AB29AB28 AB28AB27 AB27AB26 AB26AB25 AB25AB24 AB24AB23 AB23AB22 AB22AB21 AB21AB20 AB20AC20 AC20AD20 AD20AE20 AE20AF20 AF20AG20 AG20AH20 AH20AI20 AI20AJ20 AJ20AK20 AK20AL20 AL20AM20 AM20AN20 AN20AO20 AO20AP20 AP20AQ20 AQ20AR20 AR20AS20 AS20AT20 AT20AU20 AU20AV20 AV20AW20 AW20AX20 AX20AY20 AY20AZ20 AZ20BA20 BA20BB20 BB20BC20 BC20BD20 BD20BE20 BE20BF20 BF20BG20 BG20BH20 BH20BI20"/>
    </vehicle>
    <vehicle id="29" depart="5.80">
        <route edges="AZ30AZ1 AZ1AZ2 AZ2BA2 BA2BB2 BB2BC2 BC2BD2 BD2BE2 BE2BF2 BF2BG2 BG2BH2 BH2BI2 BI2BJ2 BJ2BK2 BK2BL2 BL2BM2 BM2BN2 BN2BO2 BO2BP2 BP2BQ2 BQ2BR2 BR2BS2 BS2BT2 BT2BU2 BU2BV2 BV2BW2 BW2BX2 BX2BY2 BY2BZ2 BZ2CA2 CA2CB2 CB2CC2 CC2CD2 CD2CE2 CE2CE1"/>
    </vehicle>
    <vehicle id="30" depart="6.00">
        <route edges="CF6CF7 CF7CE7 CE7CD7 CD7CC7 CC7CB7 CB7CA7 CA7BZ7 BZ7BY7 BY7BX7 BX7BW7 BW7BV7 BV7BU7 BU7BT7 BT7BS7 BS7BR7 BR7BQ7 BQ7BP7 BP7BO7 BO7BN7 BN7BM7 BM7BL7 BL7BK7 BK7BJ7 BJ7BI7 BI7BH7 BH7BG7 BG7BF7 BF7BE7 BE7BD7 BD7BC7 BC7BB7 BB7BA7 BA7AZ7 AZ7AY7 AY7AX7 AX7AW7 AW7AV7 AV7AU7 AU7AT7 AT7AS7 AS7AR7 AR7AQ7 AQ7AP7 AP7AO7 AO7AN7 AN7AM7 AM7AL7 AL7AK7 AK7AJ7 AJ7AI7 AI7AH7 AH7AG7 AG7AF7 AF7AE7 AE7AD7 AD7AC7 AC7AC8 AC8AC9 AC9AC10 AC10AC11 AC11AC12 AC12AC13 AC13AC14 AC14AC15 AC15AC16 AC16AC17 AC17AC18 AC18AC19 AC19AC20 AC20AC21 AC21AD21 AD21AE21 AE21AF21 AF21AG21 AG21AH21 AH21AI21 AI21AJ21 AJ21AK21 AK21AL21 AL21AM21 AM21AN21 AN21AO21 AO21AP21 AP21AQ21 AQ21AQ22"/>
    </vehicle>
    <vehicle id="31" depart="6.20">
        <route edges="BL23BL22 BL22BK22 BK22BJ22 BJ22BI22 BI22BH22 BH22BG22 BG22BF22 BF22BE22 BE22BD22 BD22BC22 BC22BB22 BB22BA22 BA22BA21 BA21BA20 BA20BA19 BA19BA18 BA18BA17 BA17BA16 BA16BA15 BA15BA14 BA14BA13 BA13BA12 BA12AZ12"/>
    </vehicle>
    <vehicle id="32" depart="6.40">
        <route edges="BS30BS1 BS1BR1 BR1BQ1 BQ1BP1 BP1BO1 BO1BN1 BN1BN2 BN2BN3 BN3BN4 BN4BN5 BN5BN6 BN6BN7 BN7BN8 BN8BN9 BN9BN10 BN10BN11 BN11BO11"/>
    </vehicle>
    <vehicle id="33" depart="6.60">
        <route edges="BK11BK10 BK10BJ10 BJ10BI10 BI10BH10 BH10BG10 BG10BF10 BF10BE10 BE10BD10 BD10BC10 BC10BB10 BB10BA10 BA10AZ10 AZ10AY10 AY10AX10 AX10AW10 AW10AV10 AV10AU10 AU10AT10 AT10AS10 AS10AR10 AR10AQ10 AQ10AP10 AP10AO10 AO10AN10 AN10AM10 AM10AL10 AL10AK10 AK10AJ10 AJ10AI10 AI10AH10 AH10AG10 AG10AF10 AF10AE10 AE10AD10 AD10AC10 AC10AC11 AC11AC12 AC12AC13 AC13AC14 AC14AC15 AC15AC16 AC16AC17 AC17AC18 AC18AC19 AC19AC20 AC20AC21 AC21AC22 AC22AD22 AD22AE22 AE22AF22 AF22AG22 AG22AH22 AH22AI22 AI22AJ22 AJ22AK22 AK22AL22 AL22AM22 AM22AN22 AN22AO22 AO22AP22 AP22AQ22 AQ22AR22 AR22AS22 AS22AT22 AT22AU22 AU22AV22 AV22AW22 AW22AX22 AX22AY22 AY22AZ22 AZ22BA22 BA22BB22 BB22BC22 BC22BD22 BD22BE22 BE22BF22 BF22BG22 BG22BH22 BH22BI22 BI22BJ22 BJ22BK22 BK22BL22 BL22BM22 BM22BN22 BN22BO22 BO22BP22 BP22BQ22 BQ22BR22 BR22BS22 BS22BT22 BT22BU22 BU22BV22 BV22BW22 BW22BX22 BX22BY22 BY22BZ22 BZ22CA22 CA22CB22 CB22CC22 CC22CD22 CD22CE22 CE22CD22"/>
    </vehicle>
    <vehicle id="34" depart="6.80">
        <route edges="CB8CB7 CB7CA7 CA7BZ7 BZ7BY7 BY7BX7 BX7BW7 BW7BV7 BV7BU7 BU7BT7 BT7BS7 BS7BR7 BR7BQ7 BQ7BP7 BP7BO7 BO7BN7 BN7BM7 BM7BL7 BL7BK7 BK7BJ7 BJ7BI7 BI7BH7 BH7BG7 BG7BF7 BF7BE7 BE7BD7 BD7BC7 BC7BB7 BB7BA7 BA7AZ7 AZ7AY7 AY7AX7 AX7AW7 AW7AV7 AV7AU7 AU7AT7 AT7AS7 AS7AR7 AR7AQ7 AQ7AP7 AP7AO7 AO7AN7 AN7AM7 AM7AL7 AL7AK7 AK7AJ7 AJ7AI7 AI7AH7 AH7AG7 AG7AF7 AF7AE7 AE7AD7 AD7AC7 AC7AC8 AC8AC9 AC9AC10 AC10AC11 AC11AC10"/>
    </vehicle>
    <vehicle id="35" depart="7.00">
        <route edges="BB24BB23 BB23BA23 BA23AZ23 AZ23AY23 AY23AX23 AX23AW23 AW23AV23 AV23AU23 AU23AT23 AT23AS23 AS23AR23 AR23AQ23 AQ23AP23 AP23AO23 AO23AN23 AN23AM23 AM23AL23 AL23AK23 AK23AJ23 AJ23AI23 AI23AH23 AH23AG23 AG23AF23 AF23AE23 AE23AD23 AD23AC23 AC23AB23 AB23AB22 AB22AB21 AB21AB20 AB20AB19 AB19AB18 AB18AB17 AB17AB16 AB16AB15 AB15AB14 AB14AB13 AB13AB12 AB12AB11 AB11AB10 AB10AB9 AB9AC9 AC9AD9 AD9AE9 AE9AF9 AF9AG9 AG9AH9 AH9AI9 AI9AJ9 AJ9AK9 AK9AL9 AL9AM9 AM9AN9 AN9AO9 AO9AP9 AP9AQ9 AQ9AR9 AR9AS9 AS9AT9 AT9AU9 AU9AV9 AV9AW9 AW9AX9 AX9AY9 AY9AZ9 AZ9BA9 BA9BB9 BB9BC9 BC9BD9 BD9BD8"/>
    </vehicle>
    <vehicle id="36" depart="7.20">
        <route edges="AN27AM27 AM27AM26 AM26AM25 AM25AM24 AM24AM23 AM23AM22 AM22AM21 AM21AM20 AM20AM19 AM19AM18 AM18AM17 AM17AN17 AN17AO17 AO17AP17 AP17AQ17 AQ17AR17 AR17AQ17"/>
    </vehicle>
    <vehicle id="37" depart="7.40">
        <route edges="AL14AM14 AM14AL14 AL14AK14 AK14AJ14 AJ14AI14 AI14AH14 AH14AG14 AG14AF14 AF14AE14 AE14AD14 AD14AC14 AC14AC15 AC15AC16 AC16AC17 AC17AC18 AC18AC19 AC19AC20 AC20AC21 AC21AC22 AC22AC23 AC23AC24 AC24AC25 AC25AC26 AC26AC27 AC27AC28 AC28AD28 AD28AE28 AE28AF28 AF28AG28 AG28AH28 AH28AI28 AI28AJ28 AJ28AK28 AK28AL28 AL28AM28 AM28AN28 AN28AO28 AO28AP28 AP28AQ28 AQ28AR28 AR28AS28 AS28AT28 AT28AU28 AU28AV28 AV28AW28 AW28AX28 AX28AY28 AY28AZ28 AZ28BA28 BA28BB28 BB28BC28 BC28BB28"/>
    </vehicle>
    <vehicle id="38" depart="7.60">
        <route edges="AQ7AQ6 AQ6AQ7 AQ7AR7 AR7AS7 AS7AT7 AT7AU7 AU7AV7 AV7AW7 AW7AX7 AX7AY7 AY7AZ7 AZ7BA7 BA7BB7 BB7BA7"/>
    </vehicle>
    <vehicle id="39" depart="7.80">
        <route edges="AJ28AK28 AK28AK29 AK29AK30 AK30AK1 AK1AK2 AK2AK3 AK3AL3 AL3AM3"/>
    </vehicle>
    <vehicle id="40" depart="8.00">
        <route edges="AS13AS12 AS12AS11 AS11AT11 AT11AU11 AU11AV11 AV11AW11 AW11AX11 AX11AY11 AY11AZ11 AZ11BA11 BA11BB11 BB11BC11 BC11BD11 BD11BE11 BE11BF11 BF11BG11 BG11BH11 BH11BI11 BI11BJ11 BJ11BK11 BK11BL11 BL11BM11 BM11BN11 BN11BO11 BO11BP11 BP11BQ11 BQ11BQ12"/>
    </vehicle>
    <vehicle id="41" depart="8.20">
        <route edges="AG9AH9 AH9AI9 AI9AJ9 AJ9AK9 AK9AL9 AL9AM9 AM9AN9 AN9AO9 AO9AP9 AP9AQ9 AQ9AR9 AR9AS9 AS9AT9 AT9AU9 AU9AV9 AV9AW9 AW9AX9 AX9AY9 AY9AZ9 AZ9BA9 BA9BB9 BB9BC9 BC9BD9 BD9BE9 BE9BF9 BF9BG9 BG9BH9 BH9BI9 BI9BJ9 BJ9BK9 BK9BL9 BL9BM9 BM9BN9 BN9BO9 BO9BP9 BP9BQ9 BQ9BR9 BR9BS9 BS9BT9 BT9BU9 BU9BV9 BV9BW9 BW9BX9 BX9BY9 BY9BZ9 BZ9CA9 CA9CB9 CB9CC9 CC9CD9 CD9CE9 CE9CE8"/>
    </vehicle>
    <vehicle id="42" depart="8.40">
        <route edges="AG17AG16 AG16AG17 AG17AG18 AG18AG19 AG19AG20 AG20AG21 AG21AG22 AG22AG23 AG23AH23 AH23AI23 AI23AJ23 AJ23AK23 AK23AL23 AL23AM23 AM23AN23 AN23AO23 AO23AP23 AP23AQ23 AQ23AR23 AR23AS23 AS23AT23 AT23AU23 AU23AV23 AV23AW23 AW23AX23 AX23AY23 AY23AZ23 AZ23BA23 BA23BB23 BB23BC23 BC23BD23 BD23BE23 BE23BF23 BF23BG23 BG23BH23 BH23BI23 BI23BJ23 BJ23BK23 BK23BL23 BL23BM23 BM23BN23 BN23BO23 BO23BP23 BP23BQ23 BQ23BR23 BR23BS23 BS23BT23 BT23BU23 BU23BV23 BV23BW23 BW23BX23 BX23BY23 BY23BZ23 BZ23CA23 CA23CB23 CB23CC23 CC23CC22"/>
    </vehicle>
    <vehicle id="43" depart="8.60">
        <route edges="AQ16AR16 AR16AQ16 AQ16AP16 AP16AO16 AO16AN16 AN16AM16 AM16AL16 AL16AK16 AK16AJ16 AJ16AI16 AI16AH16 AH16AG16 AG16AF16 AF16AE16 AE16AD16 AD16AC16 AC16AC17 AC17AC18 AC18AC19 AC19AC20 AC20AC21 AC21AC22 AC22AC23 AC23AC24 AC24AC25 AC25AC26 AC26AC27 AC27AC28 AC28AC29 AC29AD29 AD29AE29 AE29AF29 AF29AG29 AG29AH29 AH29AI29 AI29AJ29 AJ29AK29 AK29AL29 AL29AM29 AM29AN29 AN29AO29 AO29AP29 AP29AQ29 AQ29AR29 AR29AS29 AS29AT29 AT29AU29 AU29AV29 AV29AW29 AW29AX29 AX29AY29 AY29AZ29 AZ29BA29 BA29BB29 BB29BC29 BC29BD29 BD29BE29 BE29BF29 BF29BG29 BG29BH29 BH29BI29 BI29BJ29 BJ29BK29 BK29BL29 BL29BM29 BM29BN29 BN29BO29 BO29BP29 BP29BQ29 BQ29BR29 BR29BS29 BS29BT29 BT29BU29 BU29BV29 BV29BW29 BW29BX29 BX29BY29 BY29BZ29 BZ29CA29 CA29BZ29"/>
    </vehicle>
    <vehicle id="44" depart="8.80">
        <route edges="BH6BG6 BG6BF6 BF6BE6 BE6BD6 BD6BC6 BC6BB6 BB6BA6 BA6AZ6 AZ6AY6 AY6AX6 AX6AW6 AW6AV6 AV6AU6 AU6AT6 AT6AS6 AS6AR6 AR6AQ6 AQ6AP6 AP6AO6 AO6AN6 AN6AM6 AM6AL6 AL6AK6 AK6AJ6 AJ6AI6 AI6AH6 AH6AG6 AG6AF6 AF6AE6 AE6AD6 AD6AC6 AC6AC7 AC7AC8 AC8AC9 AC9AC10 AC10AC11 AC11AC12 AC12AC13 AC13AC14 AC14AC15 AC15AC16 AC16AC17 AC17AC18 AC18AD18 AD18AE18 AE18AF18 AF18AG18 AG18AH18 AH18AI18 AI18AJ18 AJ18AK18 AK18AL18 AL18AM18 AM18AN18 AN18AO18 AO18AP18 AP18AQ18 AQ18AR18 AR18AS18 AS18AT18 AT18AU18 AU18AV18 AV18AW18 AW18AX18 AX18AY18 AY18AZ18 AZ18BA18 BA18BB18 BB18BC18 BC18BD18 BD18BE18 BE18BF18 BF18BG18 BG18BH18 BH18BI18 BI18BJ18 BJ18BK18 BK18BL18 BL18BM18 BM18BM17"/>
    </vehicle>
    <vehicle id="45" depart="9.00">
        <route edges="CB8CB9 CB9CB8 CB8CB7 CB7CB6 CB6CC6 CC6CD6 CD6CE6 CE6CE7"/>
    </vehicle>
    <vehicle id="46" depart="9.20">
        <route edges="BY18BY19 BY19BX19 BX19BW19 BW19BV19 BV19BU19 BU19BT19 BT19BS19 BS19BR19 BR19BQ19 BQ19BP19 BP19BO19 BO19BN19 BN19BM19 BM19BL19 BL19BK19 BK19BJ19 BJ19BI19 BI19BH19 BH19BG19 BG19BF19 BF19BE19 BE19BD19 BD19BC19 BC19BB19 BB19BB18 BB18BB17 BB17BB16 BB16BB15 BB15BB14 BB14BB13 BB13BB12"/>
    </vehicle>
    <vehicle id="47" depart="9.40">
        <route edges="BN16BM16 BM16BL16 BL16BK16 BK16BJ16 BJ16BI16 BI16BH16 BH16BG16 BG16BF16 BF16BE16 BE16BD16 BD16BC16 BC16BB16 BB16BA16 BA16AZ16 AZ16AY16 AY16AX16 AX16AW16 AW16AV16 AV16AU16 AU16AT16 AT16AS16 AS16AR16 AR16AQ16 AQ16AP16 AP16AO16 AO16AN16 AN16AM16 AM16AL16 AL16AK16 AK16AJ16 AJ16AI16 AI16AH16 AH16AG16 AG16AF16 AF16AE16 AE16AD16 AD16AC16 AC16AC15 AC15AC14 AC14AC13 AC13AC12 AC12AC11 AC11AC10 AC10AC9 AC9AC8"/>
    </vehicle>
    <vehicle id="48" depart="9.60">
        <route edges="AW29AW28 AW28AV28 AV28AU28 AU28AT28 AT28AT27 AT27AT26 AT26AT25 AT25AT24 AT24AU24"/>
    </vehicle>
    <vehicle id="49" depart="9.80">
        <route edges="AU21AT21 AT21AT20 AT20AT19 AT19AT18 AT18AT17 AT17AU17"/>
    </vehicle>
    <vehicle id="50" depart="10.00">
        <route edges="CB30CB1 CB1CA1 CA1BZ1 BZ1BY1 BY1BX1 BX1BW1 BW1BV1 BV1BU1 BU1BT1 BT1BS1 BS1BR1 BR1BQ1 BQ1BP1 BP1BO1 BO1BN1 BN1BM1 BM1BL1 BL1BK1 BK1BJ1 BJ1BI1 BI1BH1 BH1BG1 BG1BF1 BF1BE1 BE1BD1 BD1BC1 BC1BB1 BB1BA1 BA1AZ1 AZ1AY1 AY1AX1 AX1AW1 AW1AV1 AV1AU1 AU1AT1 AT1AS1 AS1AR1 AR1AR2 AR2AR3 AR3AR4 AR4AR5 AR5AR6 AR6AR7 AR7AR8 AR8AR9 AR9AR10 AR10AR11 AR11AS11"/>
    </vehicle>
    <vehicle id="51" depart="10.20">
        <route edges="BI30BH30 BH30BI30 BI30BI29 BI29BJ29 BJ29BK29 BK29BL29 BL29BM29 BM29BN29 BN29BO29 BO29BP29 BP29BQ29 BQ29BR29 BR29BS29 BS29BT29 BT29BU29 BU29BV29"/>
    </vehicle>
    <vehicle id="52" depart="10.40">
        <route edges="AH25AG25 AG25AG24 AG24AG23 AG23AG22 AG22AG21 AG21AG20 AG20AG19 AG19AG18 AG18AG17 AG17AG16 AG16AG15 AG15AH15 AH15AI15 AI15AJ15 AJ15AK15 AK15AL15 AL15AM15 AM15AN15 AN15AO15 AO15AP15 AP15AQ15 AQ15AR15 AR15AS15 AS15AT15 AT15AU15 AU15AV15 AV15AW15 AW15AX15 AX15AY15 AY15AZ15 AZ15BA15 BA15BB15 BB15BC15 BC15BD15 BD15BE15 BE15BF15 BF15BG15 BG15BH15 BH15BI15 BI15BJ15 BJ15BK15 BK15BL15 BL15BM15 BM15BN15 BN15BO15 BO15BP15 BP15BQ15 BQ15BR15 BR15BS15 BS15BT15 BT15BU15 BU15BV15 BV15BW15 BW15BX15 BX15BY15 BY15BZ15 BZ15CA15 CA15CB15 CB15CC15 CC15CB15"/>
    </vehicle>
    <vehicle id="53" depart="10.60">
        <route edges="AY1AY2 AY2AY1 AY1AZ1 AZ1BA1 BA1BB1 BB1BC1 BC1BD1 BD1BE1 BE1BF1 BF1BG1 BG1BH1 BH1BI1 BI1BJ1 BJ1BK1 BK1BL1 BL1BM1 BM1BN1 BN1BO1 BO1BP1 BP1BQ1 BQ1BR1 BR1BS1 BS1BT1 BT1BU1 BU1BV1 BV1BW1 BW1BX1 BX1BY1 BY1BZ1 BZ1BY1"/>
    </vehicle>
    <vehicle id="54" depart="10.80">
        <route edges="AD4AC4 AC4AC5 AC5AC6 AC6AC7 AC7AC8 AC8AC9 AC9AC10 AC10AC11 AC11AC12 AC12AC13 AC13AC14 AC14AC15 AC15AC16 AC16AC17 AC17AC18 AC18AD18 AD18AE18 AE18AF18 AF18AG18 AG18AH18 AH18AI18 AI18AJ18 AJ18AK18 AK18AL18 AL18AM18 AM18AN18 AN18AO18 AO18AP18 AP18AQ18 AQ18AR18 AR18AS18 AS18AT18 AT18AU18 AU18AV18 AV18AW18 AW18AX18 AX18AY18 AY18AZ18 AZ18BA18 BA18BB18 BB18BC18 BC18BD18 BD18BE18 BE18BF18 BF18BG18 BG18BH18 BH18BI18 BI18BJ18 BJ18BK18 BK18BL18 BL18BM18 BM18BN18 BN18BO18 BO18BN18"/>
    </vehicle>
    <vehicle id="55" depart="11.00">
        <route edges="BB26BB25 BB25BC25 BC25BD25 BD25BE25 BE25BF25"/>
    </vehicle>
    <vehicle id="56" depart="11.20">
        <route edges="AZ14BA14 BA14BA15 BA15BA16 BA16BA17 BA17BA18 BA18BA19 BA19BA20 BA20BA21 BA21BB21 BB21BB20"/>
    </vehicle>
    <vehicle id="57" depart="11.40">
        <route edges="AF25AF26 AF26AF27 AF27AF28 AF28AF29 AF29AF30 AF30AF1 AF1AF2 AF2AF3 AF3AF4 AF4AF5 AF5AG5 AG5AH5 AH5AI5 AI5AJ5 AJ5AK5 AK5AL5 AL5AM5 AM5AN5 AN5AM5"/>
    </vehicle>
    <vehicle id="58" depart="11.60">
        <route edges="AG26AH26 AH26AH25 AH25AH24 AH24AH23 AH23AH22 AH22AH21 AH21AH20 AH20AH19 AH19AH18 AH18AH17 AH17AI17 AI17AJ17 AJ17AK17 AK17AL17 AL17AM17 AM17AN17 AN17AO17 AO17AP17 AP17AQ17 AQ17AR17 AR17AS17 AS17AT17 AT17AU17 AU17AV17 AV17AW17 AW17AX17 AX17AY17 AY17AZ17 AZ17BA17 BA17BB17 BB17BC17 BC17BD17 BD17BE17 BE17BF17 BF17BG17 BG17BH17 BH17BI17 BI17BJ17 BJ17BK17 BK17BL17 BL17BM17 BM17BN17 BN17BO17 BO17BP17 BP17BP18"/>
    </vehicle>
    <vehicle id="59" depart="11.80">
        <route edges="BC11BD11 BD11BD12 BD12BD13 BD13BD14 BD14BD15 BD15BD16 BD16BD17 BD17BD18 BD18BE18 BE18BF18 BF18BG18 BG18BH18 BH18BI18 BI18BJ18 BJ18BK18 BK18BL18 BL18BM18 BM18BN18 BN18BO18 BO18BP18 BP18BQ18 BQ18BR18 BR18BS18 BS18BT18 BT18BU18 BU18BV18 BV18BW18 BW18BX18 BX18BY18 BY18BZ18 BZ18BZ17"/>
    </vehicle>
    <vehicle id="60" depart="12.00">
        <route edges="AI9AH9 AH9AI9 AI9AI8 AI8AJ8 AJ8AK8 AK8AL8 AL8AM8 AM8AN8 AN8AO8 AO8AP8 AP8AO8"/>
    </vehicle>
    <vehicle id="61" depart="12.20">
        <route edges="BL13BL14 BL14BK14 BK14BJ14 BJ14BI14 BI14BH14 BH14BG14 BG14BF14 BF14BE14 BE14BD14 BD14BC14 BC14BB14 BB14BA14 BA14AZ14 AZ14AY14 AY14AX14 AX14AW14 AW14AV14 AV14AU14 AU14AT14 AT14AS14 AS14AR14 AR14AQ14 AQ14AP14 AP14AO14 AO14AN14 AN14AM14 AM14AL14 AL14AK14 AK14AJ14 AJ14AI14 AI14AH14 AH14AG14 AG14AF14 AF14AE14 AE14AD14 AD14AC14 AC14AB14 AB14AB13 AB13AB12 AB12AB11 AB11AB10 AB10AB9 AB9AB8 AB8AB7 AB7AB6 AB6AB5 AB5AB4 AB4AB3 AB3AB2 AB2AB1 AB1AB30 AB30AC30 AC30AD30 AD30AE30 AE30AF30 AF30AG30 AG30AH30"/>
    </vehicle>
    <vehicle id="62" depart="12.40">
        <route edges="AU24AU23 AU23AU24 AU24AU25 AU25AU26 AU26AU27 AU27AV27 AV27AW27 AW27AX27 AX27AY27 AY27AZ27 AZ27BA27 BA27BB27 BB27BC27 BC27BD27 BD27BE27 BE27BF27 BF27BG27 BG27BH27 BH27BI27 BI27BJ27 BJ27BK27 BK27BL27 BL27BM27 BM27BN27 BN27BO27 BO27BP27 BP27BQ27 BQ27BR27 BR27BS27 BS27BS28"/>
    </vehicle>
    <vehicle id="63" depart="12.60">
        <route edges="AN30AM30 AM30AM1 AM1AM2 AM2AM3 AM3AM4 AM4AM5 AM5AM6 AM6AM7 AM7AM8 AM8AN8 AN8AO8 AO8AP8 AP8AQ8 AQ8AR8 AR8AS8 AS8AT8 AT8AU8 AU8AV8 AV8AW8 AW8AX8 AX8AY8 AY8AZ8 AZ8BA8 BA8BB8 BB8BC8 BC8BD8 BD8BE8 BE8BF8 BF8BG8 BG8BH8 BH8BI8 BI8BJ8 BJ8BK8 BK8BL8 BL8BM8 BM8BN8 BN8BO8 BO8BP8 BP8BQ8 BQ8BR8 BR8BS8 BS8BS9"/>
    </vehicle>
    <vehicle id="64" depart="12.80">
        <route edges="AB17AB16 AB16AB15 AB15AB14 AB14AB13 AB13AB12 AB12AB11 AB11AB10 AB10AB9 AB9AB8 AB8AC8 AC8AD8 AD8AE8 AE8AF8 AF8AG8 AG8AH8 AH8AI8 AI8AJ8 AJ8AK8 AK8AL8 AL8AL9"/>
    </vehicle>
    <vehicle id="65" depart="13.00">
        <route edges="AH18AI18 AI18AH18 AH18AG18 AG18AF18 AF18AE18 AE18AD18 AD18AC18 AC18AC19 AC19AC20 AC20AC21 AC21AC22 AC22AC23 AC23AC24 AC24AC25 AC25AC26 AC26AC27 AC27AC28 AC28AC29 AC29AC30 AC30AD30 AD30AE30 AE30AF30 AF30AG30 AG30AH30 AH30AI30 AI30AJ30 AJ30AK30 AK30AL30 AL30AM30 AM30AN30 AN30AO30 AO30AP30 AP30AQ30 AQ30AR30 AR30AS30 AS30AT30 AT30AS30"/>
    </vehicle>
    <vehicle id="66" depart="13.20">
        <route edges="BR7BS7 BS7BR7 BR7BQ7 BQ7BP7 BP7BO7 BO7BN7 BN7BN6 BN6BN5 BN5BN4 BN4BN3 BN3BN2 BN2BN1 BN1BN30 BN30BN29 BN29BN28 BN28BO28"/>
    </vehicle>
    <vehicle id="67" depart="13.40">
        <route edges="BJ11BI11 BI11BI10 BI10BI9 BI9BI8 BI8BI7 BI7BI6 BI6BI5 BI5BI4 BI4BJ4 BJ4BK4 BK4BL4"/>
    </vehicle>
    <vehicle id="68" depart="13.60">
        <route edges="BJ24BJ25 BJ25BI25 BI25BH25 BH25BG25 BG25BF25 BF25BE25 BE25BD25 BD25BC25 BC25BB25 BB25BA25 BA25AZ25 AZ25AY25 AY25AX25 AX25AW25 AW25AV25 AV25AU25 AU25AT25 AT25AS25 AS25AR25 AR25AQ25 AQ25AP25 AP25AO25 AO25AN25 AN25AM25 AM25AL25 AL25AK25 AK25AJ25 AJ25AI25 AI25AH25 AH25AG25 AG25AF25 AF25AE25 AE25AD25 AD25AC25 AC25AC26 AC26AC27 AC27AC28 AC28AC29 AC29AC30 AC30AC1 AC1AC2 AC2AC3 AC3AC4 AC4AC5 AC5AC6 AC6AC7 AC7AC8 AC8AD8 AD8AE8 AE8AF8 AF8AG8 AG8AH8 AH8AI8 AI8AJ8 AJ8AK8 AK8AL8 AL8AM8 AM8AM7"/>
    </vehicle>
    <vehicle id="69" depart="13.80">
        <route edges="BM26BL26 BL26BK26 BK26BJ26 BJ26BI26 BI26BH26 BH26BG26 BG26BF26 BF26BE26 BE26BD26 BD26BC26 BC26BB26 BB26BA26 BA26AZ26 AZ26AY26 AY26AX26 AX26AW26 AW26AV26 AV26AU26 AU26AT26 AT26AS26 AS26AR26 AR26AQ26 AQ26AP26 AP26AO26 AO26AN26 AN26AM26 AM26AL26 AL26AK26 AK26AJ26 AJ26AI26 AI26AH26 AH26AG26 AG26AF26 AF26AE26 AE26AD26 AD26AC26 AC26AC27 AC27AC28 AC28AC29 AC29AC30 AC30AC1 AC1AC2 AC2AC3 AC3AC4 AC4AC5 AC5AC6 AC6AC7 AC7AC8 AC8AD8 AD8AE8 AE8AF8 AF8AG8 AG8AH8 AH8AI8 AI8AI9"/>
    </vehicle>
    <vehicle id="70" depart="14.00">
        <route edges="BF13BG13 BG13BF13 BF13BE13 BE13BD13 BD13BC13 BC13BB13 BB13BA13 BA13AZ13 AZ13AY13 AY13AX13 AX13AW13 AW13AV13 AV13AU13 AU13AT13 AT13AS13 AS13AR13 AR13AQ13 AQ13AP13 AP13AO13 AO13AN13 AN13AM13 AM13AL13 AL13AK13 AK13AJ13 AJ13AI13 AI13AH13 AH13AG13 AG13AF13 AF13AE13 AE13AD13 AD13AC13 AC13AB13 AB13AB12 AB12AB11 AB11AB10 AB10AB9 AB9AB8 AB8AB7 AB7AB6 AB6AB5 AB5AB4 AB4AB3 AB3AB2 AB2AC2 AC2AD2 AD2AE2 AE2AF2 AF2AG2 AG2AH2 AH2AI2 AI2AJ2 AJ2AK2 AK2AL2 AL2AM2 AM2AN2 AN2AO2 AO2AP2 AP2AQ2 AQ2AR2 AR2AS2 AS2AT2 AT2AU2 AU2AV2 AV2AW2 AW2AX2 AX2AY2 AY2AZ2 AZ2BA2"/>
    </vehicle>
    <vehicle id="71" depart="14.20">