<?xml version="1.0" encoding="UTF-8"?>

<!-- generated on 04/01/19 23:18:37 by Eclipse SUMO duarouter Version 1.1.0
<configuration xmlns:xsi="http://www.w3.org/2001/XMLSchema-instance" xsi:noNamespaceSchemaLocation="http://sumo.dlr.de/xsd/duarouterConfiguration.xsd">

    <input>
        <net-file value="net.net.xml"/>
        <route-files value="trips.trips.xml"/>
    </input>

    <output>
        <output-file value="out-30-60-40/./rou7500.rou.xml"/>
        <alternatives-output value="out-30-60-40/./rou7500.rou.alt.xml"/>
    </output>

    <time>
        <begin value="0.0"/>
        <end value="100.0"/>
    </time>

    <report>
        <no-warnings value="true"/>
        <ignore-errors value="true"/>
        <no-step-log value="true"/>
    </report>

</configuration>
-->

<routes xmlns:xsi="http://www.w3.org/2001/XMLSchema-instance" xsi:noNamespaceSchemaLocation="http://sumo.dlr.de/xsd/routes_file.xsd">
    <vehicle id="0" depart="0.00">
        <route edges="AN17AO17 AO17AO18 AO18AO19 AO19AO20 AO20AO21 AO21AO22 AO22AO23 AO23AO24 AO24AP24 AP24AQ24 AQ24AR24 AR24AS24 AS24AT24 AT24AU24 AU24AV24 AV24AW24 AW24AX24 AX24AY24 AY24AZ24 AZ24BA24 BA24BB24 BB24BC24 BC24BD24 BD24BE24 BE24BF24 BF24BG24 BG24BH24 BH24BI24 BI24BJ24 BJ24BK24 BK24BL24 BL24BM24 BM24BN24 BN24BO24 BO24BP24 BP24BQ24 BQ24BR24 BR24BS24 BS24BT24 BT24BU24 BU24BU23"/>
    </vehicle>
    <vehicle id="1" depart="0.01">
        <route edges="AN17AM17 AM17AM16 AM16AM15 AM15AM14 AM14AM13 AM13AM12 AM12AM11 AM11AN11 AN11AO11 AO11AP11 AP11AQ11 AQ11AR11 AR11AS11 AS11AT11 AT11AU11 AU11AV11 AV11AW11 AW11AX11 AX11AY11 AY11AZ11 AZ11BA11 BA11BB11 BB11BC11 BC11BD11 BD11BE11 BE11BF11 BF11BG11 BG11BH11 BH11BI11 BI11BJ11 BJ11BK11 BK11BL11 BL11BM11 BM11BL11"/>
    </vehicle>
    <vehicle id="2" depart="0.03">
        <route edges="AZ8BA8 BA8BA7 BA7BA6 BA6BA5 BA5BA4 BA4BA3 BA3BB3 BB3BC3 BC3BD3 BD3BE3 BE3BF3 BF3BG3 BG3BH3 BH3BI3 BI3BJ3 BJ3BK3 BK3BL3 BL3BM3 BM3BN3 BN3BO3 BO3BP3 BP3BQ3 BQ3BR3 BR3BS3 BS3BT3 BT3BU3 BU3BV3 BV3BW3 BW3BX3 BX3BY3 BY3BY2"/>
    </vehicle>
    <vehicle id="3" depart="0.04">
        <route edges="BT22BS22 BS22BR22 BR22BQ22 BQ22BP22 BP22BO22 BO22BN22 BN22BM22 BM22BL22 BL22BK22 BK22BJ22 BJ22BI22 BI22BH22 BH22BG22 BG22BF22 BF22BE22 BE22BD22 BD22BC22 BC22BB22 BB22BA22 BA22AZ22 AZ22AY22 AY22AX22 AX22AW22 AW22AV22 AV22AU22 AU22AT22 AT22AS22 AS22AR22 AR22AQ22 AQ22AP22 AP22AO22 AO22AN22 AN22AM22 AM22AL22 AL22AK22 AK22AJ22 AJ22AI22 AI22AH22 AH22AG22 AG22AF22 AF22AE22 AE22AD22 AD22AC22 AC22AB22 AB22AB21 AB21AB20 AB20AB19 AB19AB18 AB18AC18"/>
    </vehicle>
    <vehicle id="4" depart="0.05">
        <route edges="AY8AX8 AX8AY8 AY8AZ8 AZ8BA8 BA8BB8 BB8BC8 BC8BD8 BD8BE8 BE8BF8 BF8BG8 BG8BH8 BH8BI8 BI8BJ8 BJ8BK8 BK8BL8 BL8BM8 BM8BN8 BN8BO8 BO8BP8 BP8BQ8 BQ8BR8 BR8BS8 BS8BT8 BT8BU8 BU8BV8 BV8BW8 BW8BX8 BX8BY8 BY8BZ8 BZ8CA8 CA8CB8 CB8CC8 CC8CD8 CD8CE8 CE8CF8 CF8CG8 CG8CH8 CH8CH7"/>
    </vehicle>
    <vehicle id="5" depart="0.07">
        <route edges="BK27BK28 BK28BK27 BK27BK26 BK26BK25 BK25BK24 BK24BK23 BK23BK22 BK22BK21 BK21BK20 BK20BK19 BK19BK18 BK18BL18 BL18BM18 BM18BN18 BN18BO18 BO18BP18 BP18BQ18 BQ18BR18 BR18BS18 BS18BT18 BT18BU18 BU18BV18 BV18BW18 BW18BX18 BX18BY18 BY18BZ18 BZ18CA18 CA18CB18 CB18CC18 CC18CD18"/>
    </vehicle>
    <vehicle id="6" depart="0.08">
        <route edges="AZ14AZ15 AZ15AZ14 AZ14BA14 BA14BB14 BB14BC14 BC14BD14 BD14BE14 BE14BF14 BF14BG14 BG14BH14 BH14BI14 BI14BJ14 BJ14BK14 BK14BL14 BL14BM14 BM14BN14 BN14BO14 BO14BP14 BP14BQ14 BQ14BR14 BR14BS14 BS14BT14 BT14BU14 BU14BV14 BV14BW14 BW14BX14"/>
    </vehicle>
    <vehicle id="7" depart="0.09">
        <route edges="AO17AN17 AN17AM17 AM17AL17 AL17AK17 AK17AJ17 AJ17AI17 AI17AH17 AH17AG17 AG17AF17 AF17AE17 AE17AD17 AD17AC17 AC17AB17 AB17AB16 AB16AB15 AB15AB14 AB14AB13 AB13AB12 AB12AB11 AB11AB10 AB10AB9 AB9AB8 AB8AB7 AB7AB6 AB6AC6 AC6AD6 AD6AE6 AE6AF6 AF6AG6 AG6AH6 AH6AI6 AI6AJ6 AJ6AK6 AK6AL6 AL6AM6 AM6AN6 AN6AO6 AO6AP6 AP6AQ6 AQ6AR6 AR6AS6 AS6AT6 AT6AU6 AU6AV6 AV6AW6 AW6AX6 AX6AY6 AY6AZ6 AZ6BA6 BA6BB6 BB6BC6 BC6BD6 BD6BE6 BE6BF6 BF6BG6 BG6BH6 BH6BI6 BI6BJ6 BJ6BK6 BK6BL6 BL6BM6 BM6BN6 BN6BO6"/>
    </vehicle>
    <vehicle id="8" depart="0.10">
        <route edges="AD29AD30 AD30AD1 AD1AD2 AD2AE2 AE2AF2 AF2AG2 AG2AH2 AH2AI2 AI2AJ2 AJ2AK2 AK2AL2 AL2AM2 AM2AN2 AN2AO2 AO2AP2 AP2AP3"/>
    </vehicle>
    <vehicle id="9" depart="0.12">
        <route edges="AM27AN27 AN27AN28 AN28AN29 AN29AN30 AN30AN1 AN1AN2 AN2AN3 AN3AO3 AO3AP3 AP3AQ3 AQ3AR3 AR3AS3 AS3AT3 AT3AU3 AU3AV3 AV3AW3 AW3AX3 AX3AX2"/>
    </vehicle>
    <vehicle id="10" depart="0.13">
        <route edges="CF10CF11 CF11CE11 CE11CD11 CD11CC11 CC11CB11 CB11CA11 CA11BZ11 BZ11BY11 BY11BX11 BX11BW11 BW11BV11 BV11BU11 BU11BT11 BT11BS11 BS11BR11 BR11BQ11 BQ11BP11 BP11BO11 BO11BN11 BN11BM11 BM11BM12 BM12BM13 BM13BM14 BM14BM15 BM15BM16 BM16BM17 BM17BM18 BM18BM19 BM19BM20 BM20BM21 BM21BM22"/>
    </vehicle>
    <vehicle id="11" depart="0.14">
        <route edges="BP18BO18 BO18BN18 BN18BM18 BM18BL18 BL18BK18 BK18BJ18 BJ18BI18 BI18BH18 BH18BG18 BG18BF18 BF18BE18 BE18BD18 BD18BC18 BC18BB18 BB18BA18 BA18AZ18 AZ18AY18 AY18AX18 AX18AW18 AW18AV18 AV18AU18 AU18AT18 AT18AS18 AS18AR18 AR18AQ18 AQ18AP18 AP18AO18 AO18AN18 AN18AM18 AM18AL18 AL18AK18 AK18AJ18 AJ18AI18 AI18AH18 AH18AG18 AG18AF18 AF18AE18 AE18AD18 AD18AC18 AC18AB18 AB18AB17 AB17AB16 AB16AB15 AB15AB14 AB14AB13 AB13AB12 AB12AB11 AB11AB10 AB10AB9 AB9AB8 AB8AB7 AB7AB6 AB6AB5 AB5AB4 AB4AC4 AC4AD4 AD4AE4 AE4AF4 AF4AG4 AG4AH4 AH4AI4 AI4AJ4 AJ4AK4 AK4AL4 AL4AM4 AM4AN4 AN4AO4 AO4AP4 AP4AQ4 AQ4AR4 AR4AS4 AS4AT4 AT4AU4 AU4AV4 AV4AW4 AW4AX4 AX4AY4 AY4AZ4 AZ4BA4 BA4BB4 BB4BC4 BC4BD4 BD4BE4 BE4BF4 BF4BG4 BG4BH4 BH4BI4 BI4BJ4 BJ4BK4 BK4BL4 BL4BM4 BM4BN4 BN4BO4 BO4BP4 BP4BQ4 BQ4BR4 BR4BS4 BS4BT4 BT4BU4 BU4BV4 BV4BW4 BW4BX4 BX4BY4 BY4BZ4 BZ4CA4 CA4CB4 CB4CC4 CC4CD4 CD4CE4 CE4CF4 CF4CG4 CG4CH4 CH4CH5"/>
    </vehicle>
    <vehicle id="12" depart="0.16">
        <route edges="CH28CH29 CH29CG29 CG29CF29 CF29CE29 CE29CD29 CD29CC29 CC29CB29 CB29CB28 CB28CB27 CB27CB26 CB26CB25 CB25CB24 CB24CB23 CB23CB22 CB22CB21 CB21CB20 CB20CB19"/>
    </vehicle>
    <vehicle id="13" depart="0.17">
        <route edges="CB29CB28 CB28CA28 CA28BZ28 BZ28BY28 BY28BX28 BX28BW28 BW28BV28 BV28BU28 BU28BT28 BT28BS28 BS28BR28 BR28BQ28 BQ28BP28 BP28BP27 BP27BP26 BP26BP25 BP25BP24 BP24BP23"/>
    </vehicle>
    <vehicle id="14" depart="0.18">
        <route edges="BH29BH30 BH30BG30 BG30BF30 BF30BE30 BE30BD30 BD30BC30 BC30BB30 BB30BA30 BA30AZ30 AZ30AY30 AY30AX30 AX30AW30 AW30AV30 AV30AU30 AU30AT30 AT30AS30 AS30AR30 AR30AQ30 AQ30AP30 AP30AO30 AO30AN30 AN30AM30 AM30AL30 AL30AK30 AK30AJ30 AJ30AI30 AI30AH30 AH30AG30 AG30AF30 AF30AE30 AE30AD30 AD30AC30 AC30AC1 AC1AC2 AC2AC3 AC3AC4 AC4AC5 AC5AC6 AC6AC7 AC7AC8 AC8AC9 AC9AC10 AC10AC11 AC11AC12 AC12AC13 AC13AC14 AC14AD14 AD14AE14 AE14AF14 AF14AG14 AG14AH14 AH14AI14 AI14AJ14 AJ14AK14 AK14AL14 AL14AM14 AM14AN14 AN14AO14 AO14AP14 AP14AQ14 AQ14AR14 AR14AS14 AS14AT14 AT14AU14 AU14AV14 AV14AW14 AW14AX14 AX14AY14 AY14AZ14 AZ14BA14 BA14BB14 BB14BC14 BC14BD14 BD14BE14 BE14BF14 BF14BG14 BG14BH14 BH14BI14 BI14BJ14 BJ14BK14 BK14BL14 BL14BM14 BM14BN14 BN14BO14 BO14BP14 BP14BQ14 BQ14BR14"/>
    </vehicle>
    <vehicle id="15" depart="0.20">
        <route edges="BF2BE2 BE2BE3 BE3BF3 BF3BE3"/>
    </vehicle>
    <vehicle id="16" depart="0.21">
        <route edges="BN24BN23 BN23BM23 BM23BL23 BL23BK23 BK23BJ23 BJ23BI23 BI23BH23 BH23BG23 BG23BF23 BF23BE23 BE23BD23 BD23BC23 BC23BB23 BB23BB22 BB22BB21 BB21BB20 BB20BB19 BB19BB18 BB18BB17 BB17BB16 BB16BB15 BB15BB14 BB14BB13 BB13BB12"/>
    </vehicle>
    <vehicle id="17" depart="0.22">
        <route edges="CA29BZ29 BZ29BY29 BY29BX29 BX29BW29 BW29BV29 BV29BU29 BU29BT29 BT29BS29 BS29BR29 BR29BQ29 BQ29BP29 BP29BO29 BO29BN29 BN29BM29 BM29BL29 BL29BK29 BK29BJ29 BJ29BI29 BI29BH29 BH29BG29 BG29BF29 BF29BE29 BE29BD29 BD29BD30 BD30BD1 BD1BD2 BD2BD3 BD3BD4 BD4BD5 BD5BD6 BD6BD7 BD7BD8 BD8BE8"/>
    </vehicle>
    <vehicle id="18" depart="0.23">
        <route edges="AT26AS26 AS26AR26 AR26AQ26 AQ26AP26 AP26AO26 AO26AN26 AN26AM26 AM26AL26 AL26AK26 AK26AK25 AK25AK24 AK24AK23 AK23AK22 AK22AK21 AK21AJ21"/>
    </vehicle>
    <vehicle id="19" depart="0.25">
        <route edges="AZ26AZ25 AZ25AY25 AY25AX25 AX25AX26 AX26AX27 AX27AX28 AX28AX29 AX29AX30 AX30AX1 AX1AX2"/>
    </vehicle>
    <vehicle id="20" depart="0.26">
        <route edges="CE8CD8 CD8CC8 CC8CB8 CB8CA8 CA8BZ8 BZ8BY8 BY8BX8 BX8BW8 BW8BV8 BV8BU8 BU8BT8 BT8BS8 BS8BR8 BR8BQ8 BQ8BP8 BP8BO8 BO8BN8 BN8BM8 BM8BL8 BL8BK8 BK8BJ8 BJ8BI8 BI8BH8 BH8BG8 BG8BF8 BF8BE8 BE8BD8 BD8BC8 BC8BB8 BB8BA8 BA8AZ8 AZ8AY8 AY8AX8 AX8AW8 AW8AW9"/>
    </vehicle>
    <vehicle id="21" depart="0.27">
        <route edges="AJ1AI1 AI1AI2 AI2AI3 AI3AI4 AI4AJ4 AJ4AK4 AK4AL4 AL4AM4 AM4AN4 AN4AO4 AO4AP4 AP4AQ4 AQ4AR4 AR4AS4 AS4AT4 AT4AU4 AU4AV4 AV4AW4 AW4AX4 AX4AY4 AY4AZ4 AZ4BA4 BA4BB4 BB4BC4 BC4BD4 BD4BE4 BE4BF4 BF4BG4 BG4BH4 BH4BI4 BI4BJ4 BJ4BJ3"/>
    </vehicle>
    <vehicle id="22" depart="0.29">
        <route edges="BW14BW15 BW15BV15 BV15BU15 BU15BT15 BT15BS15 BS15BR15 BR15BQ15 BQ15BP15 BP15BO15 BO15BN15 BN15BM15 BM15BL15 BL15BK15 BK15BJ15 BJ15BI15 BI15BH15 BH15BG15 BG15BF15 BF15BE15 BE15BD15 BD15BC15 BC15BB15 BB15BB14 BB14BB13 BB13BB12 BB12BB11 BB11BB10 BB10BB9 BB9BB8 BB8BB7"/>
    </vehicle>
    <vehicle id="23" depart="0.30">
        <route edges="BP26BP25 BP25BO25 BO25BN25 BN25BM25 BM25BL25 BL25BK25 BK25BJ25 BJ25BI25 BI25BH25 BH25BG25 BG25BF25 BF25BE25 BE25BD25 BD25BC25 BC25BB25 BB25BA25 BA25AZ25 AZ25AY25 AY25AX25 AX25AW25 AW25AV25 AV25AU25 AU25AT25 AT25AS25 AS25AR25 AR25AQ25 AQ25AP25 AP25AO25 AO25AN25 AN25AM25 AM25AL25 AL25AK25 AK25AJ25 AJ25AI25 AI25AH25 AH25AG25 AG25AF25 AF25AE25 AE25AD25 AD25AC25 AC25AC26 AC26AC27 AC27AC28 AC28AC29 AC29AC30 AC30AC1 AC1AC2 AC2AC3 AC3AC4 AC4AC5 AC5AC6 AC6AC7 AC7AC8 AC8AD8 AD8AE8 AE8AF8 AF8AG8 AG8AH8 AH8AI8 AI8AJ8 AJ8AK8 AK8AL8 AL8AM8 AM8AN8 AN8AO8 AO8AP8 AP8AQ8 AQ8AR8 AR8AS8 AS8AT8 AT8AU8 AU8AV8 AV8AW8 AW8AX8 AX8AY8 AY8AZ8 AZ8BA8 BA8BB8 BB8BC8 BC8BD8 BD8BE8 BE8BF8 BF8BG8 BG8BH8 BH8BI8 BI8BJ8 BJ8BK8 BK8BL8 BL8BL7"/>
    </vehicle>
    <vehicle id="24" depart="0.31">
        <route edges="AH9AH10 AH10AH11 AH11AI11 AI11AJ11 AJ11AK11 AK11AL11 AL11AM11 AM11AN11 AN11AO11 AO11AP11 AP11AQ11 AQ11AR11 AR11AS11 AS11AT11 AT11AU11 AU11AV11 AV11AW11 AW11AX11 AX11AY11 AY11AZ11 AZ11BA11 BA11BB11 BB11BC11 BC11BD11 BD11BE11 BE11BF11 BF11BG11 BG11BH11 BH11BI11 BI11BI10"/>
    </vehicle>
    <vehicle id="25" depart="0.33">
        <route edges="CF6CG6 CG6CG5 CG5CG4 CG4CG3 CG3CG2 CG2CG3"/>
    </vehicle>
    <vehicle id="26" depart="0.34">
        <route edges="AD18AE18 AE18AE17 AE17AE16 AE16AE15 AE15AE14 AE14AE13 AE13AE12 AE12AE11 AE11AE10 AE10AE9 AE9AF9 AF9AG9 AG9AH9 AH9AI9 AI9AJ9 AJ9AK9 AK9AL9 AL9AM9 AM9AN9 AN9AO9 AO9AP9 AP9AQ9 AQ9AR9 AR9AS9 AS9AT9 AT9AU9 AU9AV9 AV9AW9 AW9AX9 AX9AY9 AY9AZ9 AZ9BA9 BA9BB9 BB9BC9 BC9BD9 BD9BE9 BE9BF9 BF9BG9 BG9BH9 BH9BI9 BI9BJ9 BJ9BK9 BK9BL9 BL9BM9 BM9BN9 BN9BO9 BO9BP9 BP9BQ9 BQ9BQ8"/>
    </vehicle>
    <vehicle id="27" depart="0.35">
        <route edges="AQ11AR11 AR11AR12 AR12AR13 AR13AR14 AR14AR15 AR15AS15 AS15AT15 AT15AU15 AU15AV15 AV15AW15 AW15AX15 AX15AY15 AY15AZ15 AZ15BA15 BA15BB15 BB15BC15 BC15BD15 BD15BE15 BE15BF15 BF15BG15 BG15BH15 BH15BI15 BI15BJ15 BJ15BK15 BK15BL15 BL15BM15 BM15BN15 BN15BO15 BO15BP15 BP15BQ15 BQ15BR15 BR15BS15 BS15BT15 BT15BU15 BU15BV15 BV15BW15 BW15BX15 BX15BX14"/>
    </vehicle>
    <vehicle id="28" depart="0.36">
        <route edges="CG7CF7 CF7CE7 CE7CD7 CD7CC7 CC7CB7 CB7CA7 CA7BZ7 BZ7BY7 BY7BX7 BX7BW7 BW7BV7 BV7BU7 BU7BT7 BT7BS7 BS7BR7 BR7BQ7 BQ7BP7 BP7BO7 BO7BO6 BO6BO5 BO5BN5"/>
    </vehicle>
    <vehicle id="29" depart="0.38">
        <route edges="CB2CB3 CB3CA3 CA3BZ3 BZ3BY3 BY3BX3 BX3BW3 BW3BV3 BV3BU3 BU3BT3 BT3BS3 BS3BR3 BR3BQ3 BQ3BP3 BP3BO3 BO3BN3 BN3BM3 BM3BL3 BL3BK3 BK3BJ3 BJ3BI3 BI3BH3 BH3BG3 BG3BF3 BF3BE3 BE3BD3 BD3BC3 BC3BB3 BB3BA3 BA3AZ3 AZ3AY3 AY3AX3 AX3AW3 AW3AV3 AV3AU3 AU3AT3 AT3AS3 AS3AR3 AR3AQ3 AQ3AP3 AP3AO3 AO3AN3 AN3AN2 AN2AN1 AN1AN30 AN30AN29 AN29AN28 AN28AN27"/>
    </vehicle>
    <vehicle id="30" depart="0.39">
        <route edges="BW25BW26 BW26BV26 BV26BU26 BU26BT26 BT26BS26 BS26BR26 BR26BQ26 BQ26BP26 BP26BO26 BO26BN26 BN26BM26 BM26BL26 BL26BK26 BK26BJ26 BJ26BI26 BI26BH26 BH26BH25 BH25BH24 BH24BH23 BH23BH22 BH22BH21 BH21BH20 BH20BH19"/>
    </vehicle>
    <vehicle id="31" depart="0.40">
        <route edges="BA21AZ21 AZ21AY21 AY21AX21 AX21AW21 AW21AV21 AV21AU21 AU21AT21 AT21AS21 AS21AR21 AR21AQ21 AQ21AP21 AP21AO21 AO21AN21 AN21AM21 AM21AL21 AL21AK21 AK21AJ21 AJ21AI21 AI21AH21 AH21AG21 AG21AF21 AF21AE21 AE21AD21 AD21AC21 AC21AC22 AC22AC23 AC23AC24 AC24AC25 AC25AC26 AC26AC27 AC27AC28 AC28AC29 AC29AC30 AC30AC1 AC1AC2 AC2AC3 AC3AD3 AD3AE3 AE3AF3 AF3AG3 AG3AH3 AH3AI3 AI3AJ3 AJ3AK3 AK3AL3 AL3AM3 AM3AN3 AN3AO3 AO3AP3 AP3AQ3 AQ3AR3 AR3AS3 AS3AT3 AT3AU3 AU3AV3 AV3AW3 AW3AX3 AX3AY3 AY3AZ3 AZ3BA3 BA3BB3 BB3BC3 BC3BD3 BD3BE3 BE3BF3 BF3BG3 BG3BH3 BH3BI3 BI3BJ3 BJ3BK3 BK3BL3 BL3BM3 BM3BN3 BN3BO3 BO3BP3 BP3BQ3 BQ3BR3 BR3BS3 BS3BT3 BT3BU3"/>
    </vehicle>
    <vehicle id="32" depart="0.42">
        <route edges="AG27AG26 AG26AG25 AG25AG24 AG24AG23 AG23AH23 AH23AI23 AI23AJ23 AJ23AK23 AK23AL23 AL23AM23 AM23AN23 AN23AO23 AO23AP23 AP23AQ23 AQ23AR23 AR23AS23 AS23AT23 AT23AU23 AU23AV23 AV23AW23 AW23AX23 AX23AY23 AY23AZ23 AZ23BA23 BA23BB23 BB23BC23 BC23BD23 BD23BE23 BE23BF23 BF23BG23 BG23BH23 BH23BI23 BI23BJ23 BJ23BK23 BK23BL23 BL23BM23 BM23BN23 BN23BO23 BO23BP23 BP23BQ23 BQ23BR23 BR23BS23 BS23BT23 BT23BU23 BU23BV23 BV23BW23 BW23BX23 BX23BY23 BY23BZ23 BZ23CA23 CA23CB23 CB23CC23 CC23CD23 CD23CE23 CE23CE24"/>
    </vehicle>
    <vehicle id="33" depart="0.43">
        <route edges="BA4BA3 BA3AZ3 AZ3AY3 AY3AY2 AY2AY1"/>
    </vehicle>
    <vehicle id="34" depart="0.44">
        <route edges="AM7AM8 AM8AM7 AM7AM6 AM6AM5 AM5AM4 AM4AM3 AM3AM2 AM2AM1 AM1AM30 AM30AM29 AM29AN29 AN29AO29 AO29AP29 AP29AQ29 AQ29AR29 AR29AS29 AS29AT29 AT29AU29 AU29AV29 AV29AW29 AW29AX29 AX29AY29 AY29AZ29 AZ29BA29 BA29BB29 BB29BC29 BC29BD29 BD29BE29 BE29BF29 BF29BG29 BG29BH29 BH29BI29 BI29BI28"/>
    </vehicle>
    <vehicle id="35" depart="0.46">
        <route edges="BV3BU3 BU3BT3 BT3BS3 BS3BR3 BR3BQ3 BQ3BP3 BP3BO3 BO3BN3 BN3BM3 BM3BL3 BL3BK3 BK3BJ3 BJ3BI3 BI3BH3 BH3BG3 BG3BF3 BF3BE3 BE3BD3 BD3BC3 BC3BB3 BB3BA3 BA3AZ3 AZ3AY3 AY3AX3 AX3AW3 AW3AV3 AV3AU3 AU3AT3 AT3AS3 AS3AS2 AS2AS1 AS1AS30 AS30AS29 AS29AS28 AS28AS27 AS27AS26 AS26AS25 AS25AS24 AS24AS23 AS23AT23"/>
    </vehicle>
    <vehicle id="36" depart="0.47">
        <route edges="AF23AG23 AG23AG24 AG24AG25 AG25AH25 AH25AI25 AI25AJ25 AJ25AK25 AK25AL25 AL25AM25 AM25AN25 AN25AO25 AO25AP25 AP25AQ25 AQ25AR25 AR25AS25 AS25AT25 AT25AU25 AU25AV25 AV25AW25 AW25AX25 AX25AY25 AY25AZ25 AZ25BA25 BA25BB25 BB25BC25 BC25BD25 BD25BE25 BE25BF25 BF25BG25 BG25BG24"/>
    </vehicle>
    <vehicle id="37" depart="0.48">
        <route edges="BZ1BZ2 BZ2BY2 BY2BX2 BX2BW2 BW2BV2 BV2BU2 BU2BT2 BT2BS2 BS2BR2 BR2BQ2 BQ2BP2 BP2BO2 BO2BN2 BN2BM2 BM2BL2 BL2BK2 BK2BJ2 BJ2BI2 BI2BH2 BH2BG2 BG2BF2 BF2BE2 BE2BD2 BD2BC2 BC2BB2 BB2BA2 BA2AZ2 AZ2AY2 AY2AX2 AX2AW2 AW2AV2 AV2AU2 AU2AT2 AT2AS2 AS2AR2 AR2AQ2 AQ2AP2 AP2AO2 AO2AN2 AN2AM2 AM2AL2 AL2AK2 AK2AJ2 AJ2AI2 AI2AH2 AH2AG2 AG2AF2 AF2AE2 AE2AD2 AD2AC2 AC2AB2 AB2AB1 AB1AB30 AB30AB29 AB29AB28 AB28AB27 AB27AB26 AB26AB25 AB25AB24 AB24AB23 AB23AB22 AB22AB21 AB21AC21 AC21AD21 AD21AE21 AE21AF21 AF21AG21 AG21AH21 AH21AI21 AI21AJ21 AJ21AK21 AK21AL21 AL21AM21 AM21AN21 AN21AO21 AO21AP21 AP21AQ21 AQ21AR21 AR21AS21 AS21AT21 AT21AU21 AU21AV21 AV21AW21 AW21AX21 AX21AY21 AY21AZ21 AZ21BA21 BA21BB21 BB21BC21 BC21BD21"/>
    </vehicle>
    <vehicle id="38" depart="0.49">
        <route edges="AG2AG1 AG1AF1 AF1AE1 AE1AD1 AD1AC1 AC1AC2 AC2AC3 AC3AC4 AC4AC5 AC5AC6 AC6AC7 AC7AC8 AC8AC9 AC9AC10 AC10AC11 AC11AC12 AC12AC13 AC13AC14 AC14AC15 AC15AD15 AD15AE15 AE15AF15 AF15AG15 AG15AH15 AH15AI15 AI15AJ15 AJ15AK15 AK15AL15 AL15AM15 AM15AN15 AN15AO15 AO15AP15 AP15AQ15 AQ15AR15 AR15AS15 AS15AT15 AT15AU15 AU15AV15 AV15AW15 AW15AX15 AX15AY15 AY15AZ15 AZ15BA15 BA15BB15 BB15BC15 BC15BD15 BD15BE15 BE15BF15 BF15BG15 BG15BH15 BH15BI15 BI15BJ15"/>
    </vehicle>
    <vehicle id="39" depart="0.51">
        <route edges="CB25CB26 CB26CA26 CA26BZ26 BZ26BY26 BY26BX26 BX26BW26 BW26BV26 BV26BU26 BU26BT26 BT26BT27 BT27BT28 BT28BT29 BT29BT30 BT30BT1 BT1BT2 BT2BT3 BT3BT4"/>
    </vehicle>
    <vehicle id="40" depart="0.52">
        <route edges="BM30BL30 BL30BK30 BK30BJ30 BJ30BI30 BI30BH30 BH30BG30 BG30BF30 BF30BE30 BE30BD30 BD30BC30 BC30BB30 BB30BA30 BA30AZ30 AZ30AY30 AY30AX30 AX30AW30 AW30AV30 AV30AU30 AU30AT30 AT30AS30 AS30AR30 AR30AQ30 AQ30AP30 AP30AO30 AO30AN30 AN30AM30 AM30AL30 AL30AK30 AK30AJ30 AJ30AI30 AI30AH30 AH30AG30 AG30AG29 AG29AG28 AG28AG27 AG27AG26 AG26AG25 AG25AG24 AG24AG23 AG23AG22"/>
    </vehicle>
    <vehicle id="41" depart="0.53">
        <route edges="AH4AH3 AH3AH4 AH4AH5 AH5AH6 AH6AH7 AH7AH8 AH8AH9 AH9AH10 AH10AH11 AH11AH12 AH12AI12 AI12AJ12 AJ12AK12 AK12AL12 AL12AM12 AM12AN12 AN12AO12 AO12AP12 AP12AQ12 AQ12AR12 AR12AS12 AS12AT12 AT12AU12 AU12AV12 AV12AW12 AW12AX12 AX12AY12 AY12AZ12 AZ12BA12 BA12BB12 BB12BC12 BC12BD12 BD12BE12 BE12BF12 BF12BG12 BG12BH12 BH12BI12 BI12BJ12 BJ12BK12 BK12BL12 BL12BM12 BM12BN12 BN12BO12 BO12BP12 BP12BQ12 BQ12BR12 BR12BS12 BS12BT12 BT12BU12 BU12BV12 BV12BW12 BW12BX12 BX12BY12 BY12BZ12 BZ12BY12"/>
    </vehicle>
    <vehicle id="42" depart="0.55">
        <route edges="BJ19BK19 BK19BJ19 BJ19BI19 BI19BH19 BH19BG19 BG19BF19 BF19BE19 BE19BD19 BD19BC19 BC19BB19 BB19BA19 BA19AZ19 AZ19AY19 AY19AX19 AX19AW19 AW19AV19 AV19AU19 AU19AT19 AT19AS19 AS19AR19 AR19AQ19 AQ19AP19 AP19AO19 AO19AN19 AN19AM19 AM19AL19 AL19AK19 AK19AJ19 AJ19AI19 AI19AH19 AH19AG19 AG19AF19 AF19AE19 AE19AD19 AD19AC19 AC19AB19 AB19AB18 AB18AB17 AB17AB16 AB16AB15 AB15AB14 AB14AB13 AB13AB12 AB12AB11 AB11AB10 AB10AB9 AB9AB8 AB8AB7 AB7AB6 AB6AB5 AB5AC5 AC5AD5 AD5AE5 AE5AF5 AF5AG5 AG5AH5 AH5AI5 AI5AJ5 AJ5AK5 AK5AL5 AL5AM5 AM5AN5 AN5AO5 AO5AP5 AP5AQ5 AQ5AR5 AR5AS5 AS5AT5 AT5AU5 AU5AV5 AV5AW5 AW5AX5 AX5AY5 AY5AZ5 AZ5BA5 BA5BB5 BB5BC5 BC5BD5 BD5BE5 BE5BF5 BF5BG5 BG5BH5 BH5BI5 BI5BJ5 BJ5BK5 BK5BK4"/>
    </vehicle>
    <vehicle id="43" depart="0.56">
        <route edges="BA6BA7 BA7BA6 BA6BA5 BA5BA4 BA4BA3 BA3BA2 BA2BA1 BA1BA30 BA30BA29 BA29BA28 BA28BA27 BA27BB27 BB27BC27 BC27BD27 BD27BE27 BE27BF27 BF27BG27 BG27BH27 BH27BI27 BI27BJ27 BJ27BK27 BK27BL27 BL27BM27 BM27BN27 BN27BO27 BO27BP27 BP27BQ27 BQ27BR27 BR27BS27 BS27BT27 BT27BU27 BU27BV27 BV27BW27 BW27BX27 BX27BY27 BY27BZ27"/>
    </vehicle>
    <vehicle id="44" depart="0.57">
        <route edges="CD1CD2 CD2CC2 CC2CB2 CB2CA2 CA2BZ2 BZ2BY2 BY2BX2 BX2BW2 BW2BV2 BV2BU2 BU2BT2 BT2BS2 BS2BR2 BR2BQ2 BQ2BP2 BP2BO2 BO2BN2 BN2BM2 BM2BL2 BL2BK2 BK2BJ2 BJ2BI2 BI2BH2 BH2BG2 BG2BF2 BF2BE2 BE2BD2 BD2BC2 BC2BB2 BB2BA2 BA2AZ2 AZ2AY2 AY2AX2 AX2AW2 AW2AV2 AV2AU2 AU2AT2 AT2AS2 AS2AR2 AR2AQ2 AQ2AP2 AP2AO2 AO2AN2 AN2AM2 AM2AL2 AL2AK2 AK2AJ2 AJ2AI2 AI2AH2 AH2AG2 AG2AF2 AF2AE2 AE2AD2 AD2AC2 AC2AC3 AC3AC4 AC4AC5 AC5AC6 AC6AC7 AC7AC8 AC8AC9 AC9AC10 AC10AC11 AC11AC12 AC12AC13 AC13AD13 AD13AE13 AE13AF13 AF13AG13 AG13AH13 AH13AI13 AI13AJ13 AJ13AK13 AK13AL13 AL13AM13 AM13AN13 AN13AO13 AO13AP13 AP13AQ13 AQ13AR13 AR13AS13 AS13AT13 AT13AU13 AU13AV13 AV13AW13 AW13AX13 AX13AY13 AY13AZ13 AZ13BA13 BA13BB13 BB13BC13 BC13BD13 BD13BE13 BE13BF13 BF13BG13 BG13BH13 BH13BI13 BI13BJ13 BJ13BK13 BK13BL13 BL13BM13 BM13BN13 BN13BO13 BO13BP13 BP13BQ13 BQ13BR13 BR13BS13 BS13BT13 BT13BU13 BU13BV13 BV13BW13 BW13BX13 BX13BY13 BY13BZ13 BZ13CA13 CA13CB13 CB13CC13 CC13CD13 CD13CE13 CE13CE14"/>
    </vehicle>
    <vehicle id="45" depart="0.59">
        <route edges="AP4AP3 AP3AO3 AO3AN3 AN3AM3 AM3AL3 AL3AK3 AK3AJ3 AJ3AI3 AI3AI4 AI4AI5 AI5AI6 AI6AI7 AI7AI8 AI8AI9 AI9AI10 AI10AI9"/>
    </vehicle>
    <vehicle id="46" depart="0.60">
        <route edges="BS5BR5 BR5BQ5 BQ5BP5 BP5BO5 BO5BN5 BN5BM5 BM5BL5 BL5BK5 BK5BJ5 BJ5BI5 BI5BH5 BH5BG5 BG5BF5 BF5BE5 BE5BD5 BD5BC5 BC5BB5 BB5BA5 BA5AZ5 AZ5AY5 AY5AX5 AX5AW5 AW5AV5 AV5AU5 AU5AT5 AT5AS5 AS5AR5 AR5AR4 AR4AR3 AR3AR2 AR2AR1 AR1AR30 AR30AR29 AR29AR28 AR28AR27 AR27AR26 AR26AR25 AR25AS25"/>
    </vehicle>
    <vehicle id="47" depart="0.61">
        <route edges="BC26BB26 BB26BB27 BB27BB28 BB28BB29 BB29BB30 BB30BB1 BB1BB2 BB2BB3 BB3BC3 BC3BD3 BD3BE3 BE3BF3 BF3BG3 BG3BH3 BH3BI3 BI3BJ3 BJ3BK3 BK3BL3 BL3BM3 BM3BN3 BN3BN4"/>
    </vehicle>
    <vehicle id="48" depart="0.62">
        <route edges="BS7BS6 BS6BR6 BR6BQ6 BQ6BP6 BP6BO6 BO6BN6 BN6BM6 BM6BL6 BL6BK6 BK6BJ6 BJ6BI6 BI6BH6 BH6BH5 BH5BH4 BH4BH3 BH3BH2 BH2BH1"/>
    </vehicle>
    <vehicle id="49" depart="0.64">
        <route edges="AW29AV29 AV29AV28 AV28AU28"/>
    </vehicle>
    <vehicle id="50" depart="0.65">
        <route edges="BS12BS13 BS13BR13 BR13BQ13 BQ13BP13 BP13BO13 BO13BN13 BN13BM13 BM13BL13 BL13BK13 BK13BJ13 BJ13BI13 BI13BH13 BH13BG13 BG13BF13 BF13BE13 BE13BD13 BD13BD12"/>
    </vehicle>
    <vehicle id="51" depart="0.66">
        <route edges="AL20AM20 AM20AM19 AM19AM18 AM18AM17 AM17AM16 AM16AM15 AM15AM14 AM14AM13 AM13AN13 AN13AO13 AO13AP13 AP13AQ13 AQ13AR13 AR13AS13 AS13AT13 AT13AU13 AU13AV13 AV13AW13 AW13AX13 AX13AY13 AY13AZ13 AZ13BA13 BA13BB13 BB13BC13 BC13BD13 BD13BE13 BE13BF13 BF13BG13 BG13BH13 BH13BI13 BI13BJ13 BJ13BK13 BK13BL13 BL13BM13 BM13BN13 BN13BO13 BO13BP13 BP13BQ13 BQ13BR13 BR13BS13 BS13BT13 BT13BU13 BU13BV13 BV13BW13 BW13BX13 BX13BY13 BY13BZ13 BZ13CA13 CA13CB13 CB13CC13"/>
    </vehicle>
    <vehicle id="52" depart="0.68">
        <route edges="AE11AE10 AE10AF10 AF10AG10 AG10AH10 AH10AI10 AI10AJ10 AJ10AK10 AK10AL10 AL10AM10 AM10AN10 AN10AO10 AO10AP10 AP10AQ10 AQ10AR10 AR10AS10 AS10AT10 AT10AU10 AU10AV10 AV10AW10 AW10AX10 AX10AY10 AY10AZ10 AZ10BA10 BA10BB10 BB10BC10 BC10BD10 BD10BE10 BE10BF10 BF10BG10 BG10BH10 BH10BI10 BI10BJ10 BJ10BK10 BK10BL10 BL10BM10 BM10BN10 BN10BO10 BO10BP10 BP10BQ10"/>
    </vehicle>
    <vehicle id="53" depart="0.69">
        <route edges="BZ28BY28 BY28BX28 BX28BW28 BW28BV28 BV28BU28 BU28BT28 BT28BS28 BS28BR28 BR28BQ28 BQ28BP28 BP28BO28 BO28BN28 BN28BM28 BM28BL28 BL28BK28 BK28BJ28 BJ28BI28 BI28BH28 BH28BG28 BG28BF28 BF28BE28 BE28BD28 BD28BC28 BC28BB28 BB28BA28 BA28AZ28 AZ28AY28 AY28AX28 AX28AW28 AW28AV28 AV28AU28 AU28AT28 AT28AS28 AS28AR28 AR28AQ28 AQ28AP28 AP28AO28 AO28AN28 AN28AM28 AM28AL28 AL28AK28 AK28AJ28 AJ28AI28 AI28AH28 AH28AG28 AG28AF28 AF28AE28 AE28AD28 AD28AC28 AC28AC29 AC29AC30 AC30AC1 AC1AC2 AC2AC3 AC3AC4 AC4AC5 AC5AC6 AC6AC7 AC7AC8 AC8AC9 AC9AD9 AD9AE9 AE9AF9 AF9AG9 AG9AH9 AH9AH8"/>
    </vehicle>
    <vehicle id="54" depart="0.70">
        <route edges="AU19AT19 AT19AT20 AT20AT21 AT21AT22 AT22AT23 AT23AT24 AT24AT25 AT25AT26 AT26AT27 AT27AT28 AT28AU28 AU28AV28 AV28AW28 AW28AX28 AX28AY28 AY28AZ28 AZ28BA28 BA28BB28 BB28BC28 BC28BD28 BD28BE28 BE28BF28 BF28BG28 BG28BH28 BH28BI28 BI28BJ28 BJ28BK28 BK28BL28 BL28BM28 BM28BN28 BN28BO28 BO28BP28 BP28BQ28 BQ28BR28 BR28BS28 BS28BT28 BT28BU28 BU28BV28 BV28BW28 BW28BX28 BX28BY28 BY28BZ28 BZ28BY28"/>
    </vehicle>
    <vehicle id="55" depart="0.72">
        <route edges="BU13BT13 BT13BS13 BS13BR13 BR13BQ13 BQ13BP13 BP13BO13 BO13BN13 BN13BM13 BM13BL13 BL13BK13 BK13BJ13 BJ13BI13 BI13BH13 BH13BG13 BG13BF13 BF13BE13 BE13BD13 BD13BC13 BC13BB13 BB13BB12 BB12BB11 BB11BB10 BB10BB9 BB9BB8 BB8BB7 BB7BC7"/>
    </vehicle>
    <vehicle id="56" depart="0.73">
        <route edges="CG3CF3 CF3CE3 CE3CD3 CD3CC3 CC3CB3 CB3CA3 CA3BZ3 BZ3BY3 BY3BX3 BX3BW3 BW3BV3 BV3BU3 BU3BT3 BT3BS3 BS3BR3 BR3BQ3 BQ3BP3 BP3BO3 BO3BN3 BN3BM3 BM3BL3 BL3BK3 BK3BJ3 BJ3BI3 BI3BH3 BH3BG3 BG3BF3 BF3BE3 BE3BD3 BD3BC3 BC3BB3 BB3BA3 BA3AZ3 AZ3AY3 AY3AX3 AX3AW3 AW3AV3 AV3AU3 AU3AT3 AT3AS3 AS3AR3 AR3AQ3 AQ3AP3 AP3AO3 AO3AN3 AN3AM3 AM3AL3 AL3AK3 AK3AJ3 AJ3AI3 AI3AH3 AH3AG3 AG3AF3 AF3AE3 AE3AD3 AD3AC3 AC3AC4 AC4AC5 AC5AC6 AC6AC7 AC7AC8 AC8AC9 AC9AC10 AC10AC11 AC11AC12 AC12AC13 AC13AC14 AC14AC15 AC15AC16 AC16AD16 AD16AE16 AE16AF16 AF16AG16 AG16AH16 AH16AI16 AI16AJ16 AJ16AK16 AK16AL16 AL16AM16 AM16AN16 AN16AO16 AO16AP16 AP16AQ16 AQ16AR16 AR16AS16 AS16AT16 AT16AU16 AU16AV16 AV16AW16 AW16AX16 AX16AY16 AY16AZ16 AZ16BA16 BA16BB16 BB16BC16 BC16BD16 BD16BE16 BE16BF16 BF16BG16 BG16BH16 BH16BI16 BI16BJ16 BJ16BK16 BK16BL16 BL16BM16 BM16BN16 BN16BO16 BO16BP16 BP16BQ16 BQ16BR16 BR16BS16 BS16BT16 BT16BU16 BU16BV16 BV16BW16 BW16BX16 BX16BY16 BY16BZ16 BZ16CA16 CA16CB16 CB16CC16 CC16CD16 CD16CE16 CE16CF16 CF16CG16 CG16CG15"/>
    </vehicle>
    <vehicle id="57" depart="0.74">
        <route edges="BV29BV30 BV30BU30 BU30BT30 BT30BS30 BS30BR30 BR30BQ30 BQ30BP30 BP30BO30 BO30BN30 BN30BM30 BM30BL30 BL30BK30 BK30BJ30 BJ30BI30 BI30BH30 BH30BG30 BG30BF30 BF30BE30 BE30BD30 BD30BC30 BC30BB30 BB30BA30 BA30AZ30 AZ30AY30 AY30AX30 AX30AW30 AW30AV30 AV30AU30 AU30AT30 AT30AS30 AS30AR30 AR30AQ30 AQ30AP30 AP30AO30 AO30AN30 AN30AM30 AM30AL30 AL30AK30 AK30AJ30 AJ30AI30 AI30AH30 AH30AG30 AG30AF30 AF30AE30 AE30AD30 AD30AC30 AC30AB30 AB30AB29 AB29AB28 AB28AB27 AB27AB26 AB26AB25 AB25AB24 AB24AB23 AB23AB22 AB22AB21 AB21AB20 AB20AB19 AB19AB18 AB18AC18 AC18AD18 AD18AC18"/>
    </vehicle>
    <vehicle id="58" depart="0.75">
        <route edges="AW29AX29 AX29AX28 AX28AX27 AX27AX26 AX26AX25 AX25AX24 AX24AY24 AY24AZ24 AZ24BA24 BA24BB24 BB24BC24 BC24BD24 BD24BE24 BE24BF24 BF24BG24 BG24BH24 BH24BI24 BI24BJ24 BJ24BK24 BK24BL24 BL24BM24 BM24BN24 BN24BO24 BO24BP24 BP24BQ24 BQ24BR24 BR24BS24 BS24BT24 BT24BU24 BU24BV24 BV24BW24 BW24BX24 BX24BY24 BY24BZ24 BZ24CA24 CA24CB24 CB24CC24 CC24CD24 CD24CE24 CE24CF24 CF24CG24 CG24CG23"/>
    </vehicle>
    <vehicle id="59" depart="0.77">
        <route edges="AR14AS14 AS14AR14 AR14AQ14 AQ14AP14 AP14AO14 AO14AN14 AN14AN13 AN13AN14"/>
    </vehicle>
    <vehicle id="60" depart="0.78">
        <route edges="BB4BB5 BB5BA5 BA5AZ5 AZ5AY5 AY5AX5 AX5AW5 AW5AV5 AV5AU5 AU5AT5 AT5AS5 AS5AR5 AR5AQ5 AQ5AP5 AP5AO5 AO5AN5 AN5AM5 AM5AM6 AM6AM7 AM7AM8 AM8AM9 AM9AM10 AM10AM11 AM11AM12 AM12AN12"/>
    </vehicle>
    <vehicle id="61" depart="0.79">
        <route edges="BH28BI28 BI28BH28 BH28BG28 BG28BF28 BF28BE28 BE28BD28 BD28BC28 BC28BB28 BB28BA28 BA28AZ28 AZ28AY28 AY28AX28 AX28AW28 AW28AW29 AW29AW30 AW30AW29"/>
    </vehicle>
    <vehicle id="62" depart="0.81">
        <route edges="AR4AS4 AS4AR4 AR4AQ4 AQ4AP4 AP4AO4 AO4AN4 AN4AM4 AM4AL4 AL4AK4 AK4AJ4 AJ4AI4 AI4AH4 AH4AG4 AG4AG3 AG3AG2 AG2AG1 AG1AH1"/>
    </vehicle>
    <vehicle id="63" depart="0.82">
        <route edges="AY1AZ1 AZ1AY1 AY1AX1 AX1AW1 AW1AV1 AV1AU1 AU1AT1 AT1AS1 AS1AR1 AR1AQ1 AQ1AP1 AP1AO1 AO1AN1 AN1AM1 AM1AL1 AL1AL2"/>
    </vehicle>
    <vehicle id="64" depart="0.83">
        <route edges="BJ5BJ4 BJ4BI4 BI4BH4 BH4BG4 BG4BF4 BF4BE4 BE4BD4 BD4BC4 BC4BB4 BB4BA4 BA4AZ4 AZ4AY4 AY4AX4 AX4AW4 AW4AV4 AV4AU4 AU4AT4 AT4AS4 AS4AR4 AR4AQ4 AQ4AP4 AP4AO4 AO4AN4 AN4AM4 AM4AL4 AL4AK4 AK4AJ4 AJ4AI4 AI4AH4 AH4AG4 AG4AF4 AF4AE4 AE4AD4 AD4AC4 AC4AB4 AB4AB3 AB3AB2 AB2AB1 AB1AB30 AB30AB29 AB29AB28 AB28AB27 AB27AB26 AB26AB25 AB25AB24 AB24AB23 AB23AB22 AB22AB21 AB21AB20 AB20AC20 AC20AD20 AD20AE20 AE20AF20 AF20AG20 AG20AH20 AH20AI20 AI20AJ20 AJ20AK20 AK20AL20 AL20AM20 AM20AN20 AN20AO20 AO20AP20 AP20AQ20 AQ20AR20 AR20AS20 AS20AT20 AT20AU20 AU20AV20 AV20AW20 AW20AX20 AX20AY20 AY20AZ20 AZ20BA20 BA20BB20 BB20BC20 BC20BD20 BD20BE20 BE20BF20 BF20BG20"/>
    </vehicle>
    <vehicle id="65" depart="0.85">
        <route edges="BJ27BJ28 BJ28BI28 BI28BH28 BH28BG28 BG28BF28 BF28BE28 BE28BD28 BD28BC28 BC28BB28 BB28BA28 BA28AZ28 AZ28AY28 AY28AX28 AX28AW28 AW28AV28 AV28AU28 AU28AT28 AT28AS28 AS28AR28 AR28AQ28 AQ28AP28 AP28AO28 AO28AN28 AN28AM28 AM28AL28 AL28AK28 AK28AJ28 AJ28AI28 AI28AH28 AH28AG28 AG28AF28 AF28AE28 AE28AD28 AD28AC28 AC28AB28 AB28AB27 AB27AB26 AB26AB25 AB25AB24 AB24AB23 AB23AB22 AB22AB21 AB21AB20 AB20AB19 AB19AB18 AB18AB17 AB17AB16 AB16AB15 AB15AC15 AC15AD15 AD15AE15 AE15AF15 AF15AG15 AG15AH15 AH15AI15 AI15AJ15 AJ15AK15 AK15AL15 AL15AM15 AM15AN15 AN15AO15 AO15AP15 AP15AQ15 AQ15AR15 AR15AS15 AS15AT15 AT15AU15 AU15AV15 AV15AW15 AW15AX15 AX15AY15 AY15AZ15 AZ15BA15 BA15BB15 BB15BC15 BC15BD15 BD15BE15 BE15BF15 BF15BG15 BG15BH15 BH15BI15 BI15BJ15 BJ15BJ14"/>
    </vehicle>
    <vehicle id="66" depart="0.86">
        <route edges="BI17BH17 BH17BG17 BG17BF17 BF17BE17 BE17BD17 BD17BC17 BC17BB17 BB17BA17 BA17AZ17 AZ17AY17 AY17AX17 AX17AW17 AW17AV17 AV17AU17 AU17AT17 AT17AT18 AT18AT19 AT19AS19"/>
    </vehicle>
    <vehicle id="67" depart="0.87">
        <route edges="BT11BT10 BT10BT9 BT9BT8 BT8BT7 BT7BT6 BT6BT5 BT5BT4 BT4BU4 BU4BV4 BV4BU4"/>
    </vehicle>
    <vehicle id="68" depart="0.88">
        <route edges="AG1AF1 AF1AF30 AF30AF29 AF29AF28 AF28AF27 AF27AF26 AF26AG26 AG26AH26 AH26AI26 AI26AJ26 AJ26AK26 AK26AL26 AL26AM26 AM26AN26 AN26AO26 AO26AP26 AP26AQ26 AQ26AR26 AR26AS26 AS26AT26 AT26AU26 AU26AV26 AV26AW26 AW26AX26"/>
    </vehicle>
    <vehicle id="69" depart="0.90">
        <route edges="BW9BX9 BX9BW9 BW9BV9 BV9BU9 BU9BT9 BT9BS9 BS9BR9 BR9BQ9 BQ9BP9 BP9BO9 BO9BO8 BO8BO7 BO7BO6 BO6BO7"/>
    </vehicle>
    <vehicle id="70" depart="0.91">
        <route edges="CD12CE12 CE12CD12 CD12CC12 CC12CB12 CB12CA12 CA12BZ12 BZ12BY12 BY12BX12 BX12BW12 BW12BV12 BV12BU12 BU12BT12 BT12BS12 BS12BR12 BR12BQ12 BQ12BP12 BP12BO12 BO12BN12 BN12BM12 BM12BM11 BM11BM10 BM10BM11"/>
    </vehicle>
    <vehicle id="71" depart="0.92">
        <route edges="BB3BC3 BC3BC2 BC2BC1 BC1BC30 BC30BC29 BC29BC28 BC28BC27 BC27BC26 BC26BC25 BC25BD25 BD25BE25 BE25BF25 BF25BG25 BG25BH25 BH25BI25 BI25BJ25 BJ25BK25 BK25BL25 BL25BM25"/>
    </vehicle>
    <vehicle id="72" depart="0.94">