<?xml version="1.0" encoding="UTF-8"?>

<!-- generated on 05/18/19 00:43:25 by Eclipse SUMO netconvert Version 1.1.0
<configuration xmlns:xsi="http://www.w3.org/2001/XMLSchema-instance" xsi:noNamespaceSchemaLocation="http://sumo.dlr.de/xsd/netconvertConfiguration.xsd">

    <input>
        <node-files value="plain.nod.xml"/>
        <edge-files value="plain.edg.xml"/>
        <connection-files value="plain.con.xml"/>
        <tllogic-files value="plain.tll.xml"/>
    </input>

    <output>
        <output-file value="new.net.xml"/>
    </output>

</configuration>
-->

<net version="1.1" junctionCornerDetail="5" limitTurnSpeed="5.50" xmlns:xsi="http://www.w3.org/2001/XMLSchema-instance" xsi:noNamespaceSchemaLocation="http://sumo.dlr.de/xsd/net_file.xsd">

    <location netOffset="-16.77,382.23" convBoundary="0.00,0.00,416.83,291.13" origBoundary="18.21,-372.18,407.41,-115.68" projParameter="!"/>

    <edge id=":0_0" function="internal">
        <lane id=":0_0_0" index="0" speed="13.95" length="13.72" shape="394.37,187.27 390.97,188.29 387.85,189.38 384.78,190.62 381.54,192.08"/>
    </edge>
    <edge id=":0_1" function="internal">
        <lane id=":0_1_0" index="0" speed="8.29" length="13.98" shape="394.37,187.27 390.67,187.76 387.56,186.98 385.06,184.93 383.17,181.62"/>
    </edge>
    <edge id=":0_2" function="internal">
        <lane id=":0_2_0" index="0" speed="8.44" length="14.07" shape="394.37,187.27 390.67,187.76 387.53,187.00 384.95,184.99 382.93,181.73"/>
    </edge>
    <edge id=":0_3" function="internal">
        <lane id=":0_3_0" index="0" speed="6.84" length="9.28" shape="386.09,180.31 387.36,182.55 389.01,183.94 391.05,184.47 393.47,184.14"/>
    </edge>
    <edge id=":0_4" function="internal">
        <lane id=":0_4_0" index="0" speed="8.18" length="14.21" shape="386.09,180.31 387.03,184.07 386.58,187.29 384.76,189.96 381.54,192.08"/>
    </edge>
    <edge id=":0_5" function="internal">
        <lane id=":0_5_0" index="0" speed="3.65" length="2.61" shape="386.09,180.31 385.85,181.74 385.28,182.43 385.01,182.42"/>
    </edge>
    <edge id=":0_6" function="internal">
        <lane id=":0_6_0" index="0" speed="5.90" length="11.15" shape="386.09,180.31 387.75,185.73 387.45,187.92 385.67,186.66 385.14,185.70"/>
    </edge>
    <edge id=":0_13" function="internal">
        <lane id=":0_13_0" index="0" speed="3.65" length="2.07" shape="385.01,182.42 384.39,182.39 383.17,181.62"/>
    </edge>
    <edge id=":0_14" function="internal">
        <lane id=":0_14_0" index="0" speed="5.90" length="4.54" shape="385.14,185.70 382.93,181.73"/>
    </edge>
    <edge id=":0_7" function="internal">
        <lane id=":0_7_0" index="0" speed="6.98" length="9.40" shape="385.85,180.42 387.20,182.62 388.93,183.97 391.02,184.48 393.47,184.14"/>
    </edge>
    <edge id=":0_8" function="internal">
        <lane id=":0_8_0" index="0" speed="8.04" length="14.10" shape="385.85,180.42 386.91,184.13 386.55,187.30 384.76,189.96 381.54,192.08"/>
    </edge>
    <edge id=":0_9" function="internal">
        <lane id=":0_9_0" index="0" speed="3.65" length="4.67" shape="385.85,180.42 385.61,181.84 385.04,182.54 384.15,182.50 382.93,181.73"/>
    </edge>
    <edge id=":0_10" function="internal">
        <lane id=":0_10_0" index="0" speed="6.69" length="9.17" shape="380.17,189.19 382.26,187.81 383.46,186.09 383.76,184.03 383.17,181.62"/>
    </edge>
    <edge id=":0_11" function="internal">
        <lane id=":0_11_0" index="0" speed="6.56" length="9.03" shape="380.17,189.19 382.23,187.83 383.38,186.13 383.61,184.10 382.93,181.73"/>
    </edge>
    <edge id=":0_12" function="internal">
        <lane id=":0_12_0" index="0" speed="13.95" length="14.24" shape="380.17,189.19 383.48,187.69 386.72,186.38 390.00,185.21 393.47,184.14"/>
    </edge>
    <edge id=":10_0" function="internal">
        <lane id=":10_0_0" index="0" speed="6.55" length="7.91" shape="153.52,270.72 151.84,269.43 150.09,268.89 148.26,269.10 146.37,270.05"/>
    </edge>
    <edge id=":10_1" function="internal">
        <lane id=":10_1_0" index="0" speed="9.77" length="11.75" shape="153.52,270.72 151.48,268.23 150.17,265.62 149.62,262.91 149.80,260.08"/>
    </edge>
    <edge id=":10_2" function="internal">
        <lane id=":10_2_0" index="0" speed="8.45" length="8.64" shape="152.94,260.68 152.82,262.71 153.26,264.68 154.25,266.60 155.79,268.47"/>
    </edge>
    <edge id=":10_3" function="internal">
        <lane id=":10_3_0" index="0" speed="11.43" length="11.85" shape="152.94,260.68 152.10,263.82 150.85,266.14 149.00,268.08 146.37,270.05"/>
    </edge>
    <edge id=":10_4" function="internal">
        <lane id=":10_4_0" index="0" speed="10.24" length="9.42" shape="144.55,267.42 146.82,265.81 148.25,264.45 149.14,262.73 149.80,260.08"/>
    </edge>
    <edge id=":10_5" function="internal">
        <lane id=":10_5_0" index="0" speed="8.05" length="4.82" shape="144.55,267.42 147.53,265.92 149.01,265.75"/>
    </edge>
    <edge id=":10_6" function="internal">
        <lane id=":10_6_0" index="0" speed="8.05" length="7.61" shape="149.01,265.75 150.39,265.59 153.15,266.44 155.79,268.47"/>
    </edge>
    <edge id=":12_0" function="internal">
        <lane id=":12_0_0" index="0" speed="9.80" length="10.22" shape="270.49,34.06 269.03,31.51 267.35,29.53 265.44,28.10 263.31,27.24"/>
    </edge>
    <edge id=":12_1" function="internal">
        <lane id=":12_1_0" index="0" speed="8.01" length="13.92" shape="270.49,34.06 269.36,30.43 269.65,27.28 271.35,24.62 274.46,22.44"/>
    </edge>
    <edge id=":12_2" function="internal">
        <lane id=":12_2_0" index="0" speed="6.51" length="8.86" shape="275.91,25.30 273.93,26.68 272.84,28.38 272.66,30.38 273.38,32.69"/>
    </edge>
    <edge id=":12_3" function="internal">
        <lane id=":12_3_0" index="0" speed="12.68" length="13.08" shape="275.91,25.30 272.74,26.73 269.75,27.59 266.69,27.78 263.31,27.24"/>
    </edge>
    <edge id=":12_4" function="internal">
        <lane id=":12_4_0" index="0" speed="11.59" length="10.87" shape="264.11,24.14 267.14,24.72 269.43,24.61 271.64,23.84 274.46,22.44"/>
    </edge>
    <edge id=":12_5" function="internal">
        <lane id=":12_5_0" index="0" speed="11.01" length="4.45" shape="264.11,24.14 266.92,25.25 268.08,26.09"/>
    </edge>
    <edge id=":12_6" function="internal">
        <lane id=":12_6_0" index="0" speed="11.01" length="8.57" shape="268.08,26.09 269.40,27.05 271.55,29.53 273.38,32.69"/>
    </edge>
    <edge id=":14_0" function="internal">
        <lane id=":14_0_0" index="0" speed="14.00" length="14.07" shape="329.79,139.12 317.02,145.04"/>
    </edge>
    <edge id=":14_1" function="internal">
        <lane id=":14_1_0" index="0" speed="8.05" length="5.66" shape="329.79,139.12 326.11,140.13 324.28,139.91"/>
    </edge>
    <edge id=":14_6" function="internal">
        <lane id=":14_6_0" index="0" speed="8.05" length="8.37" shape="324.28,139.91 322.95,139.74 320.32,137.94 318.20,134.74"/>
    </edge>
    <edge id=":14_2" function="internal">
        <lane id=":14_2_0" index="0" speed="6.56" length="8.98" shape="321.09,133.37 322.45,135.42 324.14,136.58 326.16,136.83 328.51,136.18"/>
    </edge>
    <edge id=":14_3" function="internal">
        <lane id=":14_3_0" index="0" speed="8.00" length="14.05" shape="321.09,133.37 322.23,137.04 321.93,140.21 320.20,142.87 317.02,145.04"/>
    </edge>
    <edge id=":14_4" function="internal">
        <lane id=":14_4_0" index="0" speed="6.51" length="8.94" shape="315.61,142.16 317.63,140.79 318.74,139.09 318.93,137.07 318.20,134.74"/>
    </edge>
    <edge id=":14_5" function="internal">
        <lane id=":14_5_0" index="0" speed="14.00" length="14.22" shape="315.61,142.16 328.51,136.18"/>
    </edge>
    <edge id=":17_0" function="internal">
        <lane id=":17_0_0" index="0" speed="14.00" length="12.48" shape="114.85,24.73 113.66,27.87 112.83,30.63 112.23,33.45 111.74,36.77"/>
    </edge>
    <edge id=":17_1" function="internal">
        <lane id=":17_1_0" index="0" speed="8.23" length="5.29" shape="114.85,24.73 113.10,27.76 111.71,28.89"/>
    </edge>
    <edge id=":17_6" function="internal">
        <lane id=":17_6_0" index="0" speed="8.23" length="7.89" shape="111.71,28.89 110.75,29.68 107.79,30.49 104.22,30.19"/>
    </edge>
    <edge id=":17_2" function="internal">
        <lane id=":17_2_0" index="0" speed="6.77" length="8.62" shape="104.90,27.06 107.25,27.26 109.20,26.74 110.74,25.50 111.88,23.53"/>
    </edge>
    <edge id=":17_3" function="internal">
        <lane id=":17_3_0" index="0" speed="8.02" length="13.29" shape="104.90,27.06 108.28,28.32 110.54,30.35 111.70,33.17 111.74,36.77"/>
    </edge>
    <edge id=":17_4" function="internal">
        <lane id=":17_4_0" index="0" speed="6.52" length="8.46" shape="108.57,36.37 108.54,34.08 107.81,32.28 106.36,30.99 104.22,30.19"/>
    </edge>
    <edge id=":17_5" function="internal">
        <lane id=":17_5_0" index="0" speed="14.00" length="13.29" shape="108.57,36.37 109.09,32.92 109.76,29.83 110.66,26.80 111.88,23.53"/>
    </edge>
    <edge id=":2_0" function="internal">
        <lane id=":2_0_0" index="0" speed="6.72" length="9.63" shape="360.79,132.28 359.37,129.97 357.59,128.66 355.47,128.33 353.00,128.99"/>
    </edge>
    <edge id=":2_1" function="internal">
        <lane id=":2_1_0" index="0" speed="14.00" length="15.01" shape="360.79,132.28 354.40,118.69"/>
    </edge>
    <edge id=":2_2" function="internal">
        <lane id=":2_2_0" index="0" speed="7.94" length="14.80" shape="360.79,132.28 359.65,128.31 360.09,125.03 362.11,122.44 365.71,120.53"/>
    </edge>
    <edge id=":2_3" function="internal">
        <lane id=":2_3_0" index="0" speed="3.65" length="4.68" shape="360.79,132.28 360.99,130.85 361.54,130.14 362.43,130.15 363.67,130.88"/>
    </edge>
    <edge id=":2_4" function="internal">
        <lane id=":2_4_0" index="0" speed="3.32" length="3.44" shape="360.79,132.28 363.89,130.78"/>
    </edge>
    <edge id=":2_5" function="internal">
        <lane id=":2_5_0" index="0" speed="6.83" length="9.74" shape="361.01,132.18 359.50,129.91 357.67,128.62 355.50,128.32 353.00,128.99"/>
    </edge>
    <edge id=":2_6" function="internal">
        <lane id=":2_6_0" index="0" speed="14.00" length="15.01" shape="361.01,132.18 354.40,118.69"/>
    </edge>
    <edge id=":2_7" function="internal">
        <lane id=":2_7_0" index="0" speed="7.84" length="5.98" shape="361.01,132.18 359.75,128.26 359.96,126.40"/>
    </edge>
    <edge id=":2_8" function="internal">
        <lane id=":2_8_0" index="0" speed="3.18" length="2.96" shape="361.01,132.18 363.67,130.88"/>
    </edge>
    <edge id=":2_21" function="internal">
        <lane id=":2_21_0" index="0" speed="7.84" length="8.73" shape="359.96,126.40 360.12,125.01 362.10,122.44 365.71,120.53"/>
    </edge>
    <edge id=":2_9" function="internal">
        <lane id=":2_9_0" index="0" speed="6.32" length="9.15" shape="366.85,123.73 364.56,124.86 363.27,126.43 362.98,128.44 363.67,130.88"/>
    </edge>
    <edge id=":2_10" function="internal">
        <lane id=":2_10_0" index="0" speed="6.22" length="9.01" shape="366.85,123.73 364.60,124.85 363.35,126.39 363.12,128.37 363.89,130.78"/>
    </edge>
    <edge id=":2_11" function="internal">
        <lane id=":2_11_0" index="0" speed="13.95" length="14.82" shape="366.85,123.73 363.32,124.93 359.86,126.19 356.43,127.54 353.00,128.99"/>
    </edge>
    <edge id=":2_12" function="internal">
        <lane id=":2_12_0" index="0" speed="8.64" length="14.87" shape="366.85,123.73 362.86,124.47 359.45,123.87 356.64,121.95 354.40,118.69"/>
    </edge>
    <edge id=":2_13" function="internal">
        <lane id=":2_13_0" index="0" speed="7.13" length="10.06" shape="357.27,117.28 358.79,119.47 360.70,120.75 363.00,121.10 365.71,120.53"/>
    </edge>
    <edge id=":2_14" function="internal">
        <lane id=":2_14_0" index="0" speed="14.00" length="15.04" shape="357.27,117.28 363.67,130.88"/>
    </edge>
    <edge id=":2_15" function="internal">
        <lane id=":2_15_0" index="0" speed="14.00" length="15.04" shape="357.27,117.28 363.89,130.78"/>
    </edge>
    <edge id=":2_16" function="internal">
        <lane id=":2_16_0" index="0" speed="7.92" length="5.98" shape="357.27,117.28 358.51,121.05 358.32,123.05"/>
    </edge>
    <edge id=":2_22" function="internal">
        <lane id=":2_22_0" index="0" speed="7.92" length="8.40" shape="358.32,123.05 358.21,124.25 356.37,126.90 353.00,128.99"/>
    </edge>
    <edge id=":2_17" function="internal">
        <lane id=":2_17_0" index="0" speed="6.41" length="9.04" shape="351.72,126.06 353.84,124.74 354.99,123.08 355.18,121.06 354.40,118.69"/>
    </edge>
    <edge id=":2_18" function="internal">
        <lane id=":2_18_0" index="0" speed="13.95" length="15.04" shape="351.72,126.06 365.71,120.53"/>
    </edge>
    <edge id=":2_19" function="internal">
        <lane id=":2_19_0" index="0" speed="8.15" length="14.67" shape="351.72,126.06 355.54,125.02 358.80,125.47 361.52,127.43 363.67,130.88"/>
    </edge>
    <edge id=":2_20" function="internal">
        <lane id=":2_20_0" index="0" speed="8.27" length="14.76" shape="351.72,126.06 355.53,125.02 358.84,125.46 361.62,127.38 363.89,130.78"/>
    </edge>
    <edge id=":22_0" function="internal">
        <lane id=":22_0_0" index="0" speed="14.00" length="13.99" shape="300.72,243.55 288.09,249.56"/>
    </edge>
    <edge id=":22_1" function="internal">
        <lane id=":22_1_0" index="0" speed="8.09" length="5.55" shape="300.72,243.55 297.06,244.56 295.31,244.35"/>
    </edge>
    <edge id=":22_6" function="internal">
        <lane id=":22_6_0" index="0" speed="8.09" length="8.45" shape="295.31,244.35 293.91,244.18 291.25,242.41 289.08,239.24"/>
    </edge>
    <edge id=":22_2" function="internal">
        <lane id=":22_2_0" index="0" speed="6.61" length="9.02" shape="291.95,237.82 293.34,239.87 295.06,241.02 297.09,241.27 299.43,240.62"/>
    </edge>
    <edge id=":22_3" function="internal">
        <lane id=":22_3_0" index="0" speed="8.00" length="14.05" shape="291.95,237.82 293.15,241.47 292.91,244.64 291.22,247.34 288.09,249.56"/>
    </edge>
    <edge id=":22_4" function="internal">
        <lane id=":22_4_0" index="0" speed="6.51" length="8.94" shape="286.63,246.71 288.62,245.30 289.69,243.58 289.85,241.56 289.08,239.24"/>
    </edge>
    <edge id=":22_5" function="internal">
        <lane id=":22_5_0" index="0" speed="14.00" length="14.18" shape="286.63,246.71 299.43,240.62"/>
    </edge>
    <edge id=":24_0" function="internal">
        <lane id=":24_0_0" index="0" speed="14.00" length="14.13" shape="62.32,266.77 48.48,263.88"/>
    </edge>
    <edge id=":24_1" function="internal">
        <lane id=":24_1_0" index="0" speed="7.98" length="5.64" shape="62.32,266.77 58.68,265.34 57.44,264.12"/>
    </edge>
    <edge id=":24_6" function="internal">
        <lane id=":24_6_0" index="0" speed="7.98" length="8.59" shape="57.44,264.12 56.39,263.09 55.44,260.02 55.83,256.14"/>
    </edge>
    <edge id=":24_2" function="internal">
        <lane id=":24_2_0" index="0" speed="6.49" length="9.03" shape="58.94,256.91 58.69,259.37 59.29,261.32 60.75,262.74 63.06,263.65"/>
    </edge>
    <edge id=":24_3" function="internal">
        <lane id=":24_3_0" index="0" speed="8.18" length="14.14" shape="58.94,256.91 57.50,260.52 55.28,262.89 52.27,264.01 48.48,263.88"/>
    </edge>
    <edge id=":24_4" function="internal">
        <lane id=":24_4_0" index="0" speed="6.72" length="9.22" shape="49.04,260.73 51.50,260.81 53.45,260.07 54.89,258.51 55.83,256.14"/>
    </edge>
    <edge id=":24_5" function="internal">
        <lane id=":24_5_0" index="0" speed="14.00" length="14.31" shape="49.04,260.73 63.06,263.65"/>
    </edge>
    <edge id=":25_0" function="internal">
        <lane id=":25_0_0" index="0" speed="6.53" length="9.09" shape="180.35,158.25 177.88,158.02 175.93,158.65 174.50,160.13 173.58,162.46"/>
    </edge>
    <edge id=":25_1" function="internal">
        <lane id=":25_1_0" index="0" speed="14.00" length="14.44" shape="180.35,158.25 166.27,155.05"/>
    </edge>
    <edge id=":25_2" function="internal">
        <lane id=":25_2_0" index="0" speed="14.00" length="14.52" shape="166.94,151.92 181.10,155.14"/>
    </edge>
    <edge id=":25_3" function="internal">
        <lane id=":25_3_0" index="0" speed="7.96" length="6.07" shape="166.94,151.92 170.62,153.28 172.18,154.75"/>
    </edge>
    <edge id=":25_6" function="internal">
        <lane id=":25_6_0" index="0" speed="7.96" length="8.22" shape="172.18,154.75 172.96,155.49 173.94,158.55 173.58,162.46"/>
    </edge>
    <edge id=":25_4" function="internal">
        <lane id=":25_4_0" index="0" speed="6.46" length="9.03" shape="170.47,161.72 170.70,159.24 170.08,157.31 168.60,155.91 166.27,155.05"/>
    </edge>
    <edge id=":25_5" function="internal">
        <lane id=":25_5_0" index="0" speed="8.02" length="14.26" shape="170.47,161.72 171.91,158.07 174.16,155.75 177.22,154.78 181.10,155.14"/>
    </edge>
    <edge id=":27_0" function="internal">
        <lane id=":27_0_0" index="0" speed="6.51" length="8.83" shape="93.59,139.49 91.18,139.32 89.28,139.95 87.88,141.38 86.98,143.62"/>
    </edge>
    <edge id=":27_1" function="internal">
        <lane id=":27_1_0" index="0" speed="14.00" length="14.03" shape="93.59,139.49 79.99,136.05"/>
    </edge>
    <edge id=":27_2" function="internal">
        <lane id=":27_2_0" index="0" speed="14.00" length="13.79" shape="80.88,132.98 94.26,136.36"/>
    </edge>
    <edge id=":27_3" function="internal">
        <lane id=":27_3_0" index="0" speed="8.03" length="5.50" shape="80.88,132.98 84.32,134.53 85.50,135.79"/>
    </edge>
    <edge id=":27_6" function="internal">
        <lane id=":27_6_0" index="0" speed="8.03" length="8.36" shape="85.50,135.79 86.48,136.83 87.36,139.85 86.98,143.62"/>
    </edge>
    <edge id=":27_4" function="internal">
        <lane id=":27_4_0" index="0" speed="6.54" length="8.85" shape="83.87,142.85 84.12,140.44 83.55,138.51 82.18,137.04 79.99,136.05"/>
    </edge>
    <edge id=":27_5" function="internal">
        <lane id=":27_5_0" index="0" speed="8.01" length="13.87" shape="83.87,142.85 85.29,139.34 87.49,137.09 90.48,136.09 94.26,136.36"/>
    </edge>
    <edge id=":4_0" function="internal">
        <lane id=":4_0_0" index="0" speed="6.47" length="9.03" shape="191.36,113.40 188.90,113.11 186.95,113.69 185.51,115.13 184.59,117.44"/>
    </edge>
    <edge id=":4_1" function="internal">
        <lane id=":4_1_0" index="0" speed="8.06" length="14.21" shape="191.36,113.40 187.76,111.89 185.47,109.60 184.51,106.54 184.88,102.69"/>
    </edge>
    <edge id=":4_2" function="internal">
        <lane id=":4_2_0" index="0" speed="6.58" length="9.12" shape="187.99,103.45 187.76,105.90 188.38,107.87 189.85,109.33 192.17,110.30"/>
    </edge>
    <edge id=":4_3" function="internal">
        <lane id=":4_3_0" index="0" speed="14.00" length="14.40" shape="187.99,103.45 184.59,117.44"/>
    </edge>
    <edge id=":4_4" function="internal">
        <lane id=":4_4_0" index="0" speed="14.00" length="14.40" shape="181.48,116.68 184.88,102.69"/>
    </edge>
    <edge id=":4_5" function="internal">
        <lane id=":4_5_0" index="0" speed="7.97" length="5.93" shape="181.48,116.68 182.93,113.04 184.35,111.62"/>
    </edge>
    <edge id=":4_6" function="internal">
        <lane id=":4_6_0" index="0" speed="7.97" length="8.33" shape="184.35,111.62 185.20,110.77 188.28,109.85 192.17,110.30"/>
    </edge>
    <edge id=":5_0" function="internal">
        <lane id=":5_0_0" index="0" speed="14.00" length="14.87" shape="240.73,160.55 237.04,160.01 233.38,159.38 229.75,158.67 226.11,157.86"/>
    </edge>
    <edge id=":5_1" function="internal">
        <lane id=":5_1_0" index="0" speed="7.87" length="6.17" shape="240.73,160.55 236.86,159.45 235.21,158.08"/>
    </edge>
    <edge id=":5_6" function="internal">
        <lane id=":5_6_0" index="0" speed="7.87" length="8.33" shape="235.21,158.08 234.38,157.39 233.27,154.35 233.54,150.34"/>
    </edge>
    <edge id=":5_2" function="internal">
        <lane id=":5_2_0" index="0" speed="6.35" length="9.04" shape="236.67,151.01 236.50,153.51 237.19,155.40 238.74,156.69 241.15,157.37"/>
    </edge>
    <edge id=":5_3" function="internal">
        <lane id=":5_3_0" index="0" speed="8.00" length="14.42" shape="236.67,151.01 235.30,154.77 233.08,157.17 230.02,158.20 226.11,157.86"/>
    </edge>
    <edge id=":5_4" function="internal">
        <lane id=":5_4_0" index="0" speed="6.51" length="9.18" shape="226.84,154.74 229.32,154.95 231.26,154.29 232.67,152.75 233.54,150.34"/>
    </edge>
    <edge id=":5_5" function="internal">
        <lane id=":5_5_0" index="0" speed="14.00" length="14.56" shape="226.84,154.74 230.43,155.55 233.96,156.24 237.51,156.84 241.15,157.37"/>
    </edge>
    <edge id=":6_0" function="internal">
        <lane id=":6_0_0" index="0" speed="14.00" length="14.34" shape="183.01,147.69 169.04,144.49"/>
    </edge>
    <edge id=":6_1" function="internal">
        <lane id=":6_1_0" index="0" speed="7.99" length="5.86" shape="183.01,147.69 179.38,146.26 177.98,144.89"/>
    </edge>
    <edge id=":6_6" function="internal">
        <lane id=":6_6_0" index="0" speed="7.99" length="8.36" shape="177.98,144.89 177.09,144.02 176.13,140.96 176.51,137.07"/>
    </edge>
    <edge id=":6_2" function="internal">
        <lane id=":6_2_0" index="0" speed="6.49" length="9.03" shape="179.62,137.83 179.38,140.30 179.98,142.24 181.44,143.67 183.75,144.57"/>
    </edge>
    <edge id=":6_3" function="internal">
        <lane id=":6_3_0" index="0" speed="8.06" length="14.19" shape="179.62,137.83 178.17,141.45 175.93,143.76 172.88,144.78 169.04,144.49"/>
    </edge>
    <edge id=":6_4" function="internal">
        <lane id=":6_4_0" index="0" speed="6.58" length="9.10" shape="169.73,141.36 172.19,141.55 174.14,140.89 175.58,139.40 176.51,137.07"/>
    </edge>
    <edge id=":6_5" function="internal">
        <lane id=":6_5_0" index="0" speed="14.00" length="14.38" shape="169.73,141.36 183.75,144.57"/>
    </edge>
    <edge id=":7_0" function="internal">
        <lane id=":7_0_0" index="0" speed="6.52" length="9.20" shape="215.09,14.78 212.62,14.52 210.66,15.15 209.22,16.66 208.28,19.05"/>
    </edge>
    <edge id=":7_1" function="internal">
        <lane id=":7_1_0" index="0" speed="14.00" length="14.55" shape="215.09,14.78 211.51,13.91 208.00,13.14 204.47,12.45 200.84,11.84"/>
    </edge>
    <edge id=":7_2" function="internal">
        <lane id=":7_2_0" index="0" speed="14.00" length="14.87" shape="201.34,8.68 205.01,9.30 208.65,10.01 212.27,10.80 215.89,11.69"/>
    </edge>
    <edge id=":7_3" function="internal">
        <lane id=":7_3_0" index="0" speed="7.87" length="6.16" shape="201.34,8.68 205.18,9.86 206.79,11.27"/>
    </edge>
    <edge id=":7_6" function="internal">
        <lane id=":7_6_0" index="0" speed="7.87" length="8.34" shape="206.79,11.27 207.61,11.99 208.65,15.05 208.28,19.05"/>
    </edge>
    <edge id=":7_4" function="internal">
        <lane id=":7_4_0" index="0" speed="6.34" length="9.04" shape="205.17,18.31 205.40,15.81 204.75,13.90 203.23,12.58 200.84,11.84"/>
    </edge>
    <edge id=":7_5" function="internal">
        <lane id=":7_5_0" index="0" speed="8.01" length="14.43" shape="205.17,18.31 206.63,14.58 208.91,12.23 211.99,11.27 215.89,11.69"/>
    </edge>
    <edge id=":8_0" function="internal">
        <lane id=":8_0_0" index="0" speed="6.51" length="8.89" shape="43.08,125.25 40.67,124.91 38.72,125.41 37.21,126.75 36.16,128.94"/>
    </edge>
    <edge id=":8_1" function="internal">
        <lane id=":8_1_0" index="0" speed="8.06" length="13.95" shape="43.08,125.25 39.60,123.68 37.41,121.38 36.51,118.34 36.89,114.57"/>
    </edge>
    <edge id=":8_2" function="internal">
        <lane id=":8_2_0" index="0" speed="6.57" length="8.94" shape="40.00,115.34 39.75,117.76 40.33,119.70 41.74,121.17 43.97,122.18"/>
    </edge>
    <edge id=":8_3" function="internal">
        <lane id=":8_3_0" index="0" speed="14.00" length="14.13" shape="40.00,115.34 36.16,128.94"/>
    </edge>
    <edge id=":8_4" function="internal">
        <lane id=":8_4_0" index="0" speed="14.00" length="13.93" shape="33.11,127.98 36.89,114.57"/>
    </edge>
    <edge id=":8_5" function="internal">
        <lane id=":8_5_0" index="0" speed="8.01" length="5.58" shape="33.11,127.98 34.76,124.54 36.07,123.36"/>
    </edge>
    <edge id=":8_6" function="internal">
        <lane id=":8_6_0" index="0" speed="8.01" length="8.40" shape="36.07,123.36 37.12,122.42 40.19,121.64 43.97,122.18"/>
    </edge>

    <edge id="-gneE6" from="2" to="0" priority="-1" shape="359.10,124.58 375.62,118.70 385.21,116.88 397.11,117.63 409.13,128.33 416.83,142.50 416.03,158.06 412.99,171.74 403.89,182.97 387.30,187.58">
        <lane id="-gneE6_0" index="0" speed="13.89" length="123.48" shape="365.71,120.53 375.20,117.15 385.11,115.27 397.76,116.07 410.40,127.32 418.45,142.13 417.62,158.28 414.47,172.45 404.81,184.37 394.37,187.27"/>
    </edge>
    <edge id="10" from="15" to="17" priority="1" shape="89.71,125.23 108.65,48.39 110.99,30.04">
        <lane id="10_0" index="0" speed="14.00" length="87.60" shape="88.94,121.67 107.07,48.10 108.57,36.37"/>
    </edge>
    <edge id="12" from="2" to="0" priority="1">
        <lane id="12_0" index="0" speed="14.00" length="54.28" shape="363.67,130.88 385.85,180.42"/>
    </edge>
    <edge id="13" from="0" to="2" priority="1">
        <lane id="13_0" index="0" speed="14.00" length="54.18" shape="382.93,181.73 360.79,132.28"/>
    </edge>
    <edge id="14" from="22" to="10" priority="1" shape="293.67,244.89 243.76,270.56 237.01,286.40 229.72,291.13 224.62,290.41 218.43,289.68 179.80,281.30 165.96,278.02 159.76,274.74 150.42,265.32">
        <lane id="14_0" index="0" speed="14.00" length="156.39" shape="288.09,249.56 245.01,271.72 238.29,287.48 230.09,292.80 224.41,292.00 218.17,291.26 179.45,282.86 165.39,279.53 158.80,276.04 153.52,270.72"/>
    </edge>
    <edge id="16" from="5" to="4" priority="1" shape="233.55,157.97 236.13,145.87 233.54,137.79 229.51,130.00 222.70,123.04 215.47,117.92 197.70,113.40 184.75,110.01">
        <lane id="16_0" index="0" speed="14.00" length="62.77" shape="233.54,150.34 234.48,145.95 232.06,138.41 228.20,130.95 221.66,124.26 214.79,119.40 197.30,114.95 191.36,113.40"/>
    </edge>
    <edge id="17" from="4" to="5" priority="1" shape="184.75,110.01 197.70,113.40 215.47,117.92 222.70,123.04 229.51,130.00 233.54,137.79 236.13,145.87 233.55,157.97">
        <lane id="17_0" index="0" speed="14.00" length="67.71" shape="192.17,110.30 198.10,111.85 216.15,116.44 223.74,121.82 230.82,129.05 235.02,137.17 237.78,145.79 236.67,151.01"/>
    </edge>
    <edge id="19" from="4" to="7" priority="1" shape="184.75,110.01 194.61,69.38 208.46,11.42">
        <lane id="19_0" index="0" speed="14.00" length="86.79" shape="184.88,102.69 193.05,69.01 205.17,18.31"/>
    </edge>
    <edge id="20" from="25" to="27" priority="1">
        <lane id="20_0" index="0" speed="14.00" length="74.33" shape="166.27,155.05 93.59,139.49"/>
    </edge>
    <edge id="21" from="27" to="25" priority="1">
        <lane id="21_0" index="0" speed="14.00" length="74.33" shape="94.26,136.36 166.94,151.92"/>
    </edge>
    <edge id="22" from="8" to="17" priority="1" shape="36.76,121.74 59.36,30.76 61.21,27.87 63.92,24.26 67.83,22.15 72.35,21.55 110.99,30.04">
        <lane id="22_0" index="0" speed="14.00" length="139.18" shape="36.89,114.57 57.87,30.12 59.89,26.96 62.85,23.02 67.33,20.60 72.42,19.93 104.90,27.06"/>
    </edge>
    <edge id="23" from="17" to="8" priority="1" shape="110.99,30.04 72.35,21.55 67.83,22.15 63.92,24.26 61.21,27.87 59.36,30.76 36.76,121.74">
        <lane id="23_0" index="0" speed="14.00" length="134.19" shape="104.22,30.19 72.28,23.17 68.33,23.70 64.99,25.50 62.53,28.78 60.85,31.40 40.00,115.34"/>
    </edge>
    <edge id="27" from="2" to="0" priority="1" shape="359.10,124.58 375.59,158.56 387.30,187.58">
        <lane id="27_0" index="0" speed="14.00" length="54.31" shape="363.89,130.78 377.05,157.91 386.09,180.31"/>
    </edge>
    <edge id="28" from="6" to="4" priority="1">
        <lane id="28_0" index="0" speed="14.00" length="20.99" shape="176.51,137.07 181.48,116.68"/>
    </edge>
    <edge id="29" from="4" to="6" priority="1">
        <lane id="29_0" index="0" speed="14.00" length="20.99" shape="184.59,117.44 179.62,137.83"/>
    </edge>
    <edge id="3" from="10" to="25" priority="1" shape="150.42,265.32 159.62,217.47 169.76,171.55 173.72,155.01">
        <lane id="3_0" index="0" speed="14.00" length="100.52" shape="149.80,260.08 158.05,217.15 168.20,171.19 170.47,161.72"/>
    </edge>
    <edge id="30" from="8" to="24" priority="1" shape="36.76,121.74 23.77,162.88 18.71,175.53 14.36,189.57 7.90,216.13 0.00,247.49 19.11,255.98 29.46,259.84 38.42,260.46 55.65,263.54">
        <lane id="30_0" index="0" speed="14.00" length="172.36" shape="36.16,128.94 25.28,163.42 20.22,176.06 15.90,190.00 9.45,216.51 1.88,246.57 19.71,254.50 29.80,258.26 38.62,258.87 49.04,260.73"/>
    </edge>
    <edge id="32" from="2" to="12" priority="1" shape="359.10,124.58 302.46,10.05 268.93,27.04">
        <lane id="32_0" index="0" speed="14.00" length="147.76" shape="354.40,118.69 301.74,12.21 275.91,25.30"/>
    </edge>
    <edge id="34" from="7" to="4" priority="1" shape="208.46,11.42 194.61,69.38 184.75,110.01">
        <lane id="34_0" index="0" speed="14.00" length="86.80" shape="208.28,19.05 196.17,69.75 187.99,103.45"/>
    </edge>
    <edge id="36" from="10" to="24" priority="1" shape="150.42,265.32 138.41,273.59 126.82,275.45 107.34,272.51 87.26,270.19 71.96,267.41 55.65,263.54">
        <lane id="36_0" index="0" speed="14.00" length="86.65" shape="146.37,270.05 139.02,275.11 126.83,277.07 107.13,274.10 87.02,271.77 71.63,268.98 62.32,266.77"/>
    </edge>