<?xml version="1.0" encoding="UTF-8"?>

<!-- generated on 05/18/19 00:56:07 by Eclipse SUMO netconvert Version 1.1.0
<configuration xmlns:xsi="http://www.w3.org/2001/XMLSchema-instance" xsi:noNamespaceSchemaLocation="http://sumo.dlr.de/xsd/netconvertConfiguration.xsd">

    <input>
        <sumo-net-file value="very-simple.net.xml"/>
    </input>

    <output>
        <plain-output-prefix value="plain"/>
    </output>

    <processing>
        <geometry.max-grade.fix value="false"/>
        <offset.disable-normalization value="true"/>
        <lefthand value="false"/>
    </processing>

    <junctions>
        <no-internal-links value="true"/>
        <no-turnarounds value="true"/>
        <junctions.corner-detail value="5"/>
        <junctions.limit-turn-speed value="5.5"/>
        <rectangular-lane-cut value="false"/>
    </junctions>

    <pedestrian>
        <walkingareas value="false"/>
    </pedestrian>

</configuration>
-->

<edges version="1.1" xmlns:xsi="http://www.w3.org/2001/XMLSchema-instance" xsi:noNamespaceSchemaLocation="http://sumo.dlr.de/xsd/edges_file.xsd">
    <edge id="-gneE1" from="gneJ3" to="gneJ2" priority="-1" numLanes="1" speed="13.89"/>
    <edge id="gneE1" from="gneJ2" to="gneJ3" priority="-1" numLanes="1" speed="13.89"/>
    <edge id="gneE5" from="gneJ2" to="gneJ8" priority="-1" numLanes="1" speed="13.89"/>
    <edge id="gneE6" from="gneJ8" to="gneJ2" priority="-1" numLanes="1" speed="13.89"/>
</edges>
