<?xml version="1.0" encoding="UTF-8"?>

<!-- generated on 05/18/19 00:55:58 by Eclipse SUMO netedit Version 1.1.0
<configuration xmlns:xsi="http://www.w3.org/2001/XMLSchema-instance" xsi:noNamespaceSchemaLocation="http://sumo.dlr.de/xsd/netconvertConfiguration.xsd">

    <input>
        <sumo-net-file value="C:\Users\VR_Lab\Desktop\tomis-thesis\unity-workspace\thesis-sumo-in-unity\Assets\StreamingAssets\sumo-scenarios\sumo-windridge\test-netconvert-plainxml\very-simple.net.xml"/>
    </input>

    <output>
        <output-file value="C:\Users\VR_Lab\Desktop\tomis-thesis\unity-workspace\thesis-sumo-in-unity\Assets\StreamingAssets\sumo-scenarios\sumo-windridge\test-netconvert-plainxml\very-simple.net.xml"/>
    </output>

    <processing>
        <geometry.max-grade.fix value="false"/>
        <offset.disable-normalization value="true"/>
        <lefthand value="false"/>
    </processing>

    <junctions>
        <no-internal-links value="true"/>
        <no-turnarounds value="true"/>
        <junctions.corner-detail value="5"/>
        <junctions.limit-turn-speed value="5.5"/>
        <rectangular-lane-cut value="false"/>
    </junctions>

    <pedestrian>
        <walkingareas value="false"/>
    </pedestrian>

</configuration>
-->

<net version="1.1" junctionCornerDetail="5" limitTurnSpeed="5.50" xmlns:xsi="http://www.w3.org/2001/XMLSchema-instance" xsi:noNamespaceSchemaLocation="http://sumo.dlr.de/xsd/net_file.xsd">

    <location netOffset="0.00,0.00" convBoundary="-16.96,64.88,75.12,108.81" origBoundary="-10000000000.00,-10000000000.00,10000000000.00,10000000000.00" projParameter="!"/>

    <edge id="-gneE1" from="gneJ3" to="gneJ2" priority="-1">
        <lane id="-gneE1_0" index="0" speed="13.89" length="77.25" shape="75.41,66.45 0.95,80.19"/>
    </edge>
    <edge id="gneE1" from="gneJ2" to="gneJ3" priority="-1">
        <lane id="gneE1_0" index="0" speed="13.89" length="77.25" shape="0.37,77.05 74.83,63.31"/>
    </edge>
    <edge id="gneE5" from="gneJ2" to="gneJ8" priority="-1">
        <lane id="gneE5_0" index="0" speed="13.89" length="33.97" shape="-0.17,81.01 -15.55,109.56"/>
    </edge>
    <edge id="gneE6" from="gneJ8" to="gneJ2" priority="-1">
        <lane id="gneE6_0" index="0" speed="13.89" length="33.97" shape="-18.37,108.05 -2.99,79.49"/>
    </edge>

    <junction id="gneJ2" type="priority" x="-0.85" y="78.90" incLanes="-gneE1_0 gneE6_0" intLanes="" shape="1.24,81.77 0.08,75.47 -1.76,76.08 -2.55,76.57 -3.25,77.17 -3.87,77.89 -4.39,78.73">
        <request index="0" response="00" foes="00"/>
        <request index="1" response="00" foes="00"/>
    </junction>
    <junction id="gneJ3" type="dead_end" x="75.12" y="64.88" incLanes="gneE1_0" intLanes="" shape="75.12,64.88 74.54,61.73 75.12,64.88"/>
    <junction id="gneJ8" type="dead_end" x="-16.96" y="108.81" incLanes="gneE5_0" intLanes="" shape="-16.96,108.81 -14.14,110.32 -16.96,108.81"/>

    <connection from="-gneE1" to="gneE5" fromLane="0" toLane="0" dir="r" state="M"/>
    <connection from="gneE6" to="gneE1" fromLane="0" toLane="0" dir="l" state="M"/>

</net>
