<?xml version="1.0" encoding="UTF-8"?>

<!-- generated on 03/10/19 14:13:06 by Eclipse SUMO netedit Version 1.1.0
<configuration xmlns:xsi="http://www.w3.org/2001/XMLSchema-instance" xsi:noNamespaceSchemaLocation="http://sumo.dlr.de/xsd/netconvertConfiguration.xsd">

    <input>
        <sumo-net-file value="C:\unity-workspace\ena\Assets\sumo\sumo-plainxmls\out.net.xml"/>
    </input>

    <output>
        <output-file value="C:\unity-workspace\ena\Assets\sumo\sumo-plainxmls\out.net.xml"/>
    </output>

    <processing>
        <geometry.max-grade.fix value="false"/>
        <offset.disable-normalization value="true"/>
        <lefthand value="false"/>
    </processing>

    <junctions>
        <no-turnarounds value="true"/>
        <junctions.corner-detail value="5"/>
        <junctions.limit-turn-speed value="5.5"/>
        <rectangular-lane-cut value="false"/>
    </junctions>

    <pedestrian>
        <walkingareas value="false"/>
    </pedestrian>

</configuration>
-->

<net version="1.1" junctionCornerDetail="5" limitTurnSpeed="5.50" xmlns:xsi="http://www.w3.org/2001/XMLSchema-instance" xsi:noNamespaceSchemaLocation="http://sumo.dlr.de/xsd/net_file.xsd">

    <location netOffset="-18.21,372.18" convBoundary="-1.44,-10.05,415.39,281.08" origBoundary="18.21,-372.18,407.41,-115.68" projParameter="!"/>

    <edge id=":0_0" function="internal">
        <lane id=":0_0_0" index="0" speed="13.95" length="14.87" shape="397.86,177.55 394.65,179.44 391.42,181.25 388.15,182.98 384.81,184.66"/>
    </edge>
    <edge id=":0_1" function="internal">
        <lane id=":0_1_0" index="0" speed="7.91" length="14.46" shape="397.86,177.55 394.17,179.11 390.93,179.07 388.15,177.44 385.81,174.21"/>
    </edge>
    <edge id=":0_2" function="internal">
        <lane id=":0_2_0" index="0" speed="7.85" length="14.42" shape="397.86,177.55 394.17,179.11 390.95,179.07 388.20,177.42 385.91,174.16"/>
    </edge>
    <edge id=":0_3" function="internal">
        <lane id=":0_3_0" index="0" speed="6.34" length="9.02" shape="388.75,172.67 390.18,174.71 391.90,175.75 393.91,175.78 396.22,174.81"/>
    </edge>
    <edge id=":0_4" function="internal">
        <lane id=":0_4_0" index="0" speed="8.03" length="14.43" shape="388.75,172.67 390.03,176.45 389.80,179.71 388.06,182.44 384.81,184.66"/>
    </edge>
    <edge id=":0_5" function="internal">
        <lane id=":0_5_0" index="0" speed="3.28" length="3.32" shape="388.75,172.67 385.81,174.21"/>
    </edge>
    <edge id=":0_6" function="internal">
        <lane id=":0_6_0" index="0" speed="3.65" length="2.58" shape="388.75,172.67 388.60,174.11 388.07,174.83 387.83,174.84"/>
    </edge>
    <edge id=":0_15" function="internal">
        <lane id=":0_15_0" index="0" speed="3.65" length="2.10" shape="387.83,174.84 387.18,174.85 385.91,174.16"/>
    </edge>
    <edge id=":0_7" function="internal">
        <lane id=":0_7_0" index="0" speed="6.40" length="9.08" shape="388.64,172.73 390.11,174.75 391.86,175.77 393.90,175.79 396.22,174.81"/>
    </edge>
    <edge id=":0_8" function="internal">
        <lane id=":0_8_0" index="0" speed="7.97" length="14.38" shape="388.64,172.73 389.98,176.48 389.78,179.71 388.06,182.44 384.81,184.66"/>
    </edge>
    <edge id=":0_9" function="internal">
        <lane id=":0_9_0" index="0" speed="3.65" length="4.67" shape="388.64,172.73 388.49,174.16 387.97,174.89 387.08,174.90 385.81,174.21"/>
    </edge>
    <edge id=":0_10" function="internal">
        <lane id=":0_10_0" index="0" speed="3.21" length="3.08" shape="388.64,172.73 385.91,174.16"/>
    </edge>
    <edge id=":0_11" function="internal">
        <lane id=":0_11_0" index="0" speed="6.47" length="9.12" shape="383.41,181.78 385.46,180.38 386.54,178.65 386.66,176.59 385.81,174.21"/>
    </edge>
    <edge id=":0_12" function="internal">
        <lane id=":0_12_0" index="0" speed="6.53" length="9.18" shape="383.41,181.78 385.47,180.37 386.58,178.63 386.73,176.56 385.91,174.16"/>
    </edge>
    <edge id=":0_13" function="internal">
        <lane id=":0_13_0" index="0" speed="13.95" length="14.59" shape="383.41,181.78 396.22,174.81"/>
    </edge>
    <edge id=":0_14" function="internal">
        <lane id=":0_14_0" index="0" speed="3.65" length="2.08" shape="383.41,181.78 384.84,181.98 385.34,182.36"/>
    </edge>
    <edge id=":0_16" function="internal">
        <lane id=":0_16_0" index="0" speed="3.65" length="2.60" shape="385.34,182.36 385.55,182.52 385.54,183.41 384.81,184.66"/>
    </edge>
    <edge id=":1_0" function="internal">
        <lane id=":1_0_0" index="0" speed="6.82" length="3.51" shape="273.21,158.35 272.28,158.80 271.58,159.00 270.86,158.97 269.85,158.76"/>
    </edge>
    <edge id=":1_1" function="internal">
        <lane id=":1_1_0" index="0" speed="3.65" length="2.70" shape="273.21,158.35 271.77,158.20 271.05,157.67 271.04,157.31"/>
    </edge>
    <edge id=":1_4" function="internal">
        <lane id=":1_4_0" index="0" speed="3.65" length="1.98" shape="271.04,157.31 271.03,156.78 271.73,155.51"/>
    </edge>
    <edge id=":1_2" function="internal">
        <lane id=":1_2_0" index="0" speed="4.30" length="1.17" shape="270.61,155.65 270.94,155.72 271.19,155.73 271.42,155.66 271.73,155.51"/>
    </edge>
    <edge id=":1_3" function="internal">
        <lane id=":1_3_0" index="0" speed="3.65" length="2.04" shape="270.61,155.65 271.59,156.71 271.72,157.30"/>
    </edge>
    <edge id=":1_5" function="internal">
        <lane id=":1_5_0" index="0" speed="3.65" length="2.63" shape="271.72,157.30 271.78,157.58 271.21,158.27 269.85,158.76"/>
    </edge>
    <edge id=":10_0" function="internal">
        <lane id=":10_0_0" index="0" speed="6.55" length="7.91" shape="152.08,260.67 150.40,259.38 148.65,258.84 146.82,259.05 144.93,260.00"/>
    </edge>
    <edge id=":10_1" function="internal">
        <lane id=":10_1_0" index="0" speed="9.77" length="11.75" shape="152.08,260.67 150.04,258.18 148.73,255.57 148.18,252.86 148.36,250.03"/>
    </edge>
    <edge id=":10_2" function="internal">
        <lane id=":10_2_0" index="0" speed="3.65" length="4.67" shape="152.08,260.67 151.81,259.26 152.09,258.41 152.94,258.13 154.35,258.42"/>
    </edge>
    <edge id=":10_3" function="internal">
        <lane id=":10_3_0" index="0" speed="8.45" length="8.64" shape="151.50,250.63 151.38,252.66 151.82,254.63 152.81,256.55 154.35,258.42"/>
    </edge>
    <edge id=":10_4" function="internal">
        <lane id=":10_4_0" index="0" speed="11.43" length="11.85" shape="151.50,250.63 150.66,253.77 149.41,256.09 147.56,258.03 144.93,260.00"/>
    </edge>
    <edge id=":10_5" function="internal">
        <lane id=":10_5_0" index="0" speed="3.65" length="2.34" shape="151.50,250.63 150.49,251.66 149.63,251.90"/>
    </edge>
    <edge id=":10_9" function="internal">
        <lane id=":10_9_0" index="0" speed="3.65" length="2.34" shape="149.63,251.90 148.92,251.36 148.36,250.03"/>
    </edge>
    <edge id=":10_6" function="internal">
        <lane id=":10_6_0" index="0" speed="10.24" length="9.42" shape="143.11,257.37 145.38,255.76 146.81,254.40 147.70,252.68 148.36,250.03"/>
    </edge>
    <edge id=":10_7" function="internal">
        <lane id=":10_7_0" index="0" speed="8.05" length="4.82" shape="143.11,257.37 146.09,255.87 147.57,255.70"/>
    </edge>
    <edge id=":10_8" function="internal">
        <lane id=":10_8_0" index="0" speed="3.65" length="2.34" shape="143.11,257.37 144.56,257.34 145.34,257.78"/>
    </edge>
    <edge id=":10_10" function="internal">
        <lane id=":10_10_0" index="0" speed="8.05" length="7.61" shape="147.57,255.70 148.95,255.54 151.71,256.39 154.35,258.42"/>
    </edge>
    <edge id=":10_11" function="internal">
        <lane id=":10_11_0" index="0" speed="3.65" length="2.34" shape="145.34,257.78 145.46,258.66 144.93,260.00"/>
    </edge>
    <edge id=":11_0" function="internal">
        <lane id=":11_0_0" index="0" speed="14.00" length="0.31" shape="204.87,154.43 204.57,154.36"/>
    </edge>
    <edge id=":11_1" function="internal">
        <lane id=":11_1_0" index="0" speed="3.65" length="2.34" shape="204.87,154.43 203.88,153.38 203.68,152.51"/>
    </edge>
    <edge id=":11_4" function="internal">
        <lane id=":11_4_0" index="0" speed="3.65" length="2.34" shape="203.68,152.51 204.25,151.82 205.60,151.32"/>
    </edge>
    <edge id=":11_2" function="internal">
        <lane id=":11_2_0" index="0" speed="14.00" length="0.29" shape="205.32,151.25 205.60,151.32"/>
    </edge>
    <edge id=":11_3" function="internal">
        <lane id=":11_3_0" index="0" speed="3.65" length="2.34" shape="205.32,151.25 206.30,152.31 206.50,153.18"/>
    </edge>
    <edge id=":11_5" function="internal">
        <lane id=":11_5_0" index="0" speed="3.65" length="2.34" shape="206.50,153.18 205.93,153.86 204.57,154.36"/>
    </edge>
    <edge id=":12_0" function="internal">
        <lane id=":12_0_0" index="0" speed="9.78" length="10.21" shape="269.04,24.01 267.59,21.46 265.91,19.48 264.00,18.05 261.87,17.19"/>
    </edge>
    <edge id=":12_1" function="internal">
        <lane id=":12_1_0" index="0" speed="8.01" length="13.91" shape="269.04,24.01 267.91,20.38 268.20,17.23 269.90,14.57 273.01,12.40"/>
    </edge>
    <edge id=":12_2" function="internal">
        <lane id=":12_2_0" index="0" speed="3.65" length="4.67" shape="269.04,24.01 269.25,22.58 269.80,21.88 270.69,21.90 271.93,22.64"/>
    </edge>
    <edge id=":12_3" function="internal">
        <lane id=":12_3_0" index="0" speed="6.51" length="8.85" shape="274.46,15.25 272.48,16.64 271.40,18.33 271.21,20.33 271.93,22.64"/>
    </edge>
    <edge id=":12_4" function="internal">
        <lane id=":12_4_0" index="0" speed="12.68" length="13.07" shape="274.46,15.25 271.29,16.68 268.31,17.54 265.25,17.73 261.87,17.19"/>
    </edge>
    <edge id=":12_5" function="internal">
        <lane id=":12_5_0" index="0" speed="3.65" length="2.34" shape="274.46,15.25 273.03,15.08 272.31,14.55"/>
    </edge>
    <edge id=":12_9" function="internal">
        <lane id=":12_9_0" index="0" speed="3.65" length="2.34" shape="272.31,14.55 272.31,13.65 273.01,12.40"/>
    </edge>
    <edge id=":12_6" function="internal">
        <lane id=":12_6_0" index="0" speed="11.59" length="10.86" shape="262.67,14.09 265.70,14.67 267.99,14.56 270.20,13.79 273.01,12.40"/>
    </edge>
    <edge id=":12_7" function="internal">
        <lane id=":12_7_0" index="0" speed="10.99" length="4.45" shape="262.67,14.09 265.48,15.20 266.64,16.04"/>
    </edge>
    <edge id=":12_8" function="internal">
        <lane id=":12_8_0" index="0" speed="3.65" length="2.17" shape="262.67,14.09 263.63,15.17 263.78,15.88"/>
    </edge>
    <edge id=":12_10" function="internal">
        <lane id=":12_10_0" index="0" speed="10.99" length="8.56" shape="266.64,16.04 267.96,17.00 270.11,19.48 271.93,22.64"/>
    </edge>
    <edge id=":12_11" function="internal">
        <lane id=":12_11_0" index="0" speed="3.65" length="2.50" shape="263.78,15.88 263.82,16.04 263.23,16.72 261.87,17.19"/>
    </edge>
    <edge id=":13_0" function="internal">
        <lane id=":13_0_0" index="0" speed="14.00" length="0.30" shape="372.79,149.36 372.66,149.09"/>
    </edge>
    <edge id=":13_1" function="internal">
        <lane id=":13_1_0" index="0" speed="3.65" length="2.34" shape="372.79,149.36 372.94,147.93 373.47,147.20"/>
    </edge>
    <edge id=":13_4" function="internal">
        <lane id=":13_4_0" index="0" speed="3.65" length="2.34" shape="373.47,147.20 374.36,147.19 375.63,147.88"/>
    </edge>
    <edge id=":13_2" function="internal">
        <lane id=":13_2_0" index="0" speed="14.00" length="0.20" shape="375.53,147.70 375.63,147.88"/>
    </edge>
    <edge id=":13_3" function="internal">
        <lane id=":13_3_0" index="0" speed="3.65" length="2.34" shape="375.53,147.70 375.34,149.13 374.79,149.84"/>
    </edge>
    <edge id=":13_5" function="internal">
        <lane id=":13_5_0" index="0" speed="3.65" length="2.34" shape="374.79,149.84 373.90,149.83 372.66,149.09"/>
    </edge>
    <edge id=":14_0" function="internal">
        <lane id=":14_0_0" index="0" speed="14.00" length="14.14" shape="328.69,129.78 316.01,136.03"/>
    </edge>
    <edge id=":14_1" function="internal">
        <lane id=":14_1_0" index="0" speed="8.00" length="5.69" shape="328.69,129.78 324.98,130.90 323.17,130.71"/>
    </edge>
    <edge id=":14_2" function="internal">
        <lane id=":14_2_0" index="0" speed="3.65" length="2.34" shape="328.69,129.78 327.26,129.56 326.56,129.00"/>
    </edge>
    <edge id=":14_9" function="internal">
        <lane id=":14_9_0" index="0" speed="8.00" length="8.45" shape="323.17,130.71 321.80,130.57 319.15,128.79 317.02,125.56"/>
    </edge>
    <edge id=":14_10" function="internal">
        <lane id=":14_10_0" index="0" speed="3.65" length="2.34" shape="326.56,129.00 326.58,128.11 327.33,126.88"/>
    </edge>
    <edge id=":14_3" function="internal">
        <lane id=":14_3_0" index="0" speed="6.51" length="8.99" shape="319.91,124.19 321.26,126.25 322.95,127.38 324.98,127.59 327.33,126.88"/>
    </edge>
    <edge id=":14_4" function="internal">
        <lane id=":14_4_0" index="0" speed="8.09" length="14.09" shape="319.91,124.19 321.06,127.88 320.79,131.08 319.11,133.80 316.01,136.03"/>
    </edge>
    <edge id=":14_5" function="internal">
        <lane id=":14_5_0" index="0" speed="3.65" length="4.67" shape="319.91,124.19 319.70,125.62 319.15,126.32 318.25,126.30 317.02,125.56"/>
    </edge>
    <edge id=":14_6" function="internal">
        <lane id=":14_6_0" index="0" speed="6.61" length="9.08" shape="314.53,133.19 316.52,131.76 317.59,130.01 317.76,127.94 317.02,125.56"/>
    </edge>
    <edge id=":14_7" function="internal">
        <lane id=":14_7_0" index="0" speed="14.00" length="14.28" shape="314.53,133.19 327.33,126.88"/>
    </edge>
    <edge id=":14_8" function="internal">
        <lane id=":14_8_0" index="0" speed="3.65" length="2.34" shape="314.53,133.19 315.96,133.35 316.68,133.87"/>
    </edge>
    <edge id=":14_11" function="internal">
        <lane id=":14_11_0" index="0" speed="3.65" length="2.34" shape="316.68,133.87 316.70,134.77 316.01,136.03"/>
    </edge>
    <edge id=":15_0" function="internal">
        <lane id=":15_0_0" index="0" speed="3.65" length="4.67" shape="91.12,117.45 90.12,116.41 89.91,115.54 90.47,114.85 91.81,114.33"/>
    </edge>
    <edge id=":15_1" function="internal">
        <lane id=":15_1_0" index="0" speed="3.65" length="4.67" shape="90.61,112.38 89.54,113.36 88.67,113.55 87.99,112.97 87.50,111.62"/>
    </edge>
    <edge id=":17_0" function="internal">
        <lane id=":17_0_0" index="0" speed="14.00" length="12.48" shape="113.41,14.68 112.22,17.82 111.39,20.58 110.79,23.40 110.30,26.72"/>
    </edge>
    <edge id=":17_1" function="internal">
        <lane id=":17_1_0" index="0" speed="8.23" length="5.29" shape="113.41,14.68 111.66,17.71 110.27,18.84"/>
    </edge>
    <edge id=":17_2" function="internal">
        <lane id=":17_2_0" index="0" speed="3.65" length="2.34" shape="113.41,14.68 112.22,15.49 111.33,15.57"/>
    </edge>
    <edge id=":17_9" function="internal">
        <lane id=":17_9_0" index="0" speed="8.23" length="7.89" shape="110.27,18.84 109.31,19.63 106.35,20.44 102.78,20.14"/>
    </edge>
    <edge id=":17_10" function="internal">
        <lane id=":17_10_0" index="0" speed="3.65" length="2.34" shape="111.33,15.57 110.73,14.90 110.44,13.48"/>
    </edge>
    <edge id=":17_3" function="internal">
        <lane id=":17_3_0" index="0" speed="6.77" length="8.62" shape="103.46,17.01 105.81,17.21 107.76,16.69 109.30,15.45 110.44,13.48"/>
    </edge>
    <edge id=":17_4" function="internal">
        <lane id=":17_4_0" index="0" speed="8.02" length="13.29" shape="103.46,17.01 106.84,18.27 109.10,20.30 110.26,23.12 110.30,26.72"/>
    </edge>
    <edge id=":17_5" function="internal">
        <lane id=":17_5_0" index="0" speed="3.65" length="4.67" shape="103.46,17.01 104.46,18.05 104.68,18.92 104.12,19.62 102.78,20.14"/>
    </edge>
    <edge id=":17_6" function="internal">
        <lane id=":17_6_0" index="0" speed="6.52" length="8.46" shape="107.13,26.32 107.10,24.03 106.37,22.23 104.92,20.94 102.78,20.14"/>
    </edge>
    <edge id=":17_7" function="internal">
        <lane id=":17_7_0" index="0" speed="14.00" length="13.29" shape="107.13,26.32 107.65,22.87 108.32,19.78 109.22,16.75 110.44,13.48"/>
    </edge>
    <edge id=":17_8" function="internal">
        <lane id=":17_8_0" index="0" speed="3.65" length="2.34" shape="107.13,26.32 108.08,25.23 108.92,24.93"/>
    </edge>
    <edge id=":17_11" function="internal">
        <lane id=":17_11_0" index="0" speed="3.65" length="2.34" shape="108.92,24.93 109.66,25.43 110.30,26.72"/>
    </edge>
    <edge id=":18_0" function="internal">
        <lane id=":18_0_0" index="0" speed="6.11" length="6.81" shape="0.37,240.00 -1.18,239.03 -2.15,237.79 -2.53,236.25 -2.33,234.44"/>
    </edge>
    <edge id=":18_1" function="internal">
        <lane id=":18_1_0" index="0" speed="3.65" length="2.69" shape="0.37,240.00 -0.40,238.78 -0.44,237.88 -0.17,237.66"/>
    </edge>
    <edge id=":18_4" function="internal">
        <lane id=":18_4_0" index="0" speed="3.65" length="1.98" shape="-0.17,237.66 0.25,237.32 1.67,237.07"/>
    </edge>
    <edge id=":18_2" function="internal">
        <lane id=":18_2_0" index="0" speed="3.92" length="2.27" shape="0.77,235.22 0.70,235.82 0.83,236.33 1.15,236.75 1.67,237.07"/>
    </edge>
    <edge id=":18_3" function="internal">
        <lane id=":18_3_0" index="0" speed="3.65" length="2.03" shape="0.77,235.22 -0.30,236.19 -0.87,236.31"/>
    </edge>
    <edge id=":18_5" function="internal">
        <lane id=":18_5_0" index="0" speed="3.65" length="2.65" shape="-0.87,236.31 -1.17,236.38 -1.85,235.80 -2.33,234.44"/>
    </edge>
    <edge id=":19_0" function="internal">
        <lane id=":19_0_0" index="0" speed="14.00" length="0.55" shape="108.82,38.36 108.80,38.52 108.78,38.63 108.76,38.74 108.72,38.90"/>
    </edge>
    <edge id=":19_1" function="internal">
        <lane id=":19_1_0" index="0" speed="3.65" length="2.34" shape="108.82,38.36 107.88,39.45 107.03,39.74"/>
    </edge>
    <edge id=":19_4" function="internal">
        <lane id=":19_4_0" index="0" speed="3.65" length="2.34" shape="107.03,39.74 106.29,39.25 105.65,37.96"/>
    </edge>
    <edge id=":19_2" function="internal">
        <lane id=":19_2_0" index="0" speed="14.00" length="0.18" shape="105.61,38.14 105.63,38.08 105.63,38.05 105.64,38.01 105.65,37.96"/>
    </edge>
    <edge id=":19_3" function="internal">
        <lane id=":19_3_0" index="0" speed="3.65" length="2.34" shape="105.61,38.14 106.68,37.16 107.55,36.97"/>
    </edge>
    <edge id=":19_5" function="internal">
        <lane id=":19_5_0" index="0" speed="3.65" length="2.34" shape="107.55,36.97 108.23,37.54 108.72,38.90"/>
    </edge>
    <edge id=":2_0" function="internal">
        <lane id=":2_0_0" index="0" speed="6.71" length="9.56" shape="359.57,122.13 358.08,119.88 356.28,118.62 354.17,118.34 351.74,119.05"/>
    </edge>
    <edge id=":2_1" function="internal">
        <lane id=":2_1_0" index="0" speed="14.00" length="14.93" shape="359.57,122.13 353.00,108.72"/>
    </edge>
    <edge id=":2_2" function="internal">
        <lane id=":2_2_0" index="0" speed="7.84" length="5.98" shape="359.57,122.13 358.31,118.21 358.52,116.35"/>
    </edge>
    <edge id=":2_3" function="internal">
        <lane id=":2_3_0" index="0" speed="3.28" length="1.71" shape="359.57,122.13 361.11,121.38"/>
    </edge>
    <edge id=":2_4" function="internal">
        <lane id=":2_4_0" index="0" speed="3.65" length="2.34" shape="359.57,122.13 359.76,120.70 360.31,119.99"/>
    </edge>
    <edge id=":2_24" function="internal">
        <lane id=":2_24_0" index="0" speed="7.84" length="8.73" shape="358.52,116.35 358.68,114.96 360.66,112.39 364.27,110.48"/>
    </edge>
    <edge id=":2_25" function="internal">
        <lane id=":2_25_0" index="0" speed="3.28" length="1.60" shape="361.11,121.38 362.55,120.68"/>
    </edge>
    <edge id=":2_26" function="internal">
        <lane id=":2_26_0" index="0" speed="3.65" length="2.34" shape="360.31,119.99 361.20,120.00 362.45,120.73"/>
    </edge>
    <edge id=":2_5" function="internal">
        <lane id=":2_5_0" index="0" speed="6.17" length="8.95" shape="365.41,113.68 363.17,114.79 361.95,116.33 361.75,118.29 362.55,120.68"/>
    </edge>
    <edge id=":2_6" function="internal">
        <lane id=":2_6_0" index="0" speed="6.22" length="9.02" shape="365.41,113.68 363.16,114.80 361.91,116.34 361.68,118.32 362.45,120.73"/>
    </edge>
    <edge id=":2_7" function="internal">
        <lane id=":2_7_0" index="0" speed="13.95" length="14.69" shape="365.41,113.68 361.90,114.88 358.49,116.16 355.12,117.54 351.74,119.05"/>
    </edge>
    <edge id=":2_8" function="internal">
        <lane id=":2_8_0" index="0" speed="8.62" length="14.80" shape="365.41,113.68 361.42,114.42 358.02,113.84 355.22,111.94 353.00,108.72"/>
    </edge>
    <edge id=":2_9" function="internal">
        <lane id=":2_9_0" index="0" speed="7.11" length="10.00" shape="355.87,107.30 357.37,109.46 359.27,110.72 361.57,111.06 364.27,110.48"/>
    </edge>
    <edge id=":2_10" function="internal">
        <lane id=":2_10_0" index="0" speed="14.00" length="14.96" shape="355.87,107.30 362.55,120.68"/>
    </edge>
    <edge id=":2_11" function="internal">
        <lane id=":2_11_0" index="0" speed="14.00" length="14.96" shape="355.87,107.30 362.45,120.73"/>
    </edge>
    <edge id=":2_12" function="internal">
        <lane id=":2_12_0" index="0" speed="7.96" length="5.97" shape="355.87,107.30 357.09,111.03 356.91,113.07"/>
    </edge>
    <edge id=":2_13" function="internal">
        <lane id=":2_13_0" index="0" speed="3.65" length="2.34" shape="355.87,107.30 355.68,108.73 355.14,109.44"/>
    </edge>
    <edge id=":2_27" function="internal">
        <lane id=":2_27_0" index="0" speed="7.96" length="8.31" shape="356.91,113.07 356.81,114.23 355.03,116.91 351.74,119.05"/>
    </edge>
    <edge id=":2_28" function="internal">
        <lane id=":2_28_0" index="0" speed="3.65" length="2.34" shape="355.14,109.44 354.25,109.44 353.00,108.72"/>
    </edge>
    <edge id=":2_14" function="internal">
        <lane id=":2_14_0" index="0" speed="6.46" length="9.03" shape="350.39,116.15 352.47,114.79 353.60,113.10 353.77,111.08 353.00,108.72"/>
    </edge>
    <edge id=":2_15" function="internal">
        <lane id=":2_15_0" index="0" speed="13.95" length="15.00" shape="350.39,116.15 353.81,114.61 357.26,113.15 360.75,111.78 364.27,110.48"/>
    </edge>
    <edge id=":2_16" function="internal">
        <lane id=":2_16_0" index="0" speed="8.23" length="14.70" shape="350.39,116.15 354.15,115.04 357.43,115.42 360.23,117.30 362.55,120.68"/>
    </edge>
    <edge id=":2_17" function="internal">
        <lane id=":2_17_0" index="0" speed="8.17" length="14.66" shape="350.39,116.15 354.15,115.04 357.41,115.43 360.18,117.33 362.45,120.73"/>
    </edge>
    <edge id=":2_18" function="internal">
        <lane id=":2_18_0" index="0" speed="3.65" length="4.67" shape="350.39,116.15 351.81,116.37 352.51,116.93 352.49,117.82 351.74,119.05"/>
    </edge>
    <edge id=":2_19" function="internal">
        <lane id=":2_19_0" index="0" speed="6.77" length="9.61" shape="359.67,122.08 358.15,119.85 356.32,118.60 354.18,118.33 351.74,119.05"/>
    </edge>
    <edge id=":2_20" function="internal">
        <lane id=":2_20_0" index="0" speed="14.00" length="14.93" shape="359.67,122.08 353.00,108.72"/>
    </edge>
    <edge id=":2_21" function="internal">
        <lane id=":2_21_0" index="0" speed="7.79" length="14.67" shape="359.67,122.08 358.36,118.18 358.69,114.95 360.66,112.39 364.27,110.48"/>
    </edge>
    <edge id=":2_22" function="internal">
        <lane id=":2_22_0" index="0" speed="3.65" length="4.67" shape="359.67,122.08 359.87,120.65 360.41,119.94 361.31,119.95 362.55,120.68"/>
    </edge>
    <edge id=":2_23" function="internal">
        <lane id=":2_23_0" index="0" speed="3.21" length="3.09" shape="359.67,122.08 362.45,120.73"/>
    </edge>
    <edge id=":20_0" function="internal">
        <lane id=":20_0_0" index="0" speed="14.00" length="0.22" shape="159.77,207.64 159.73,207.85"/>
    </edge>
    <edge id=":20_1" function="internal">
        <lane id=":20_1_0" index="0" speed="3.65" length="2.34" shape="159.77,207.64 158.73,208.64 157.86,208.85"/>
    </edge>
    <edge id=":20_4" function="internal">
        <lane id=":20_4_0" index="0" speed="3.65" length="2.34" shape="157.86,208.85 157.17,208.29 156.65,206.95"/>
    </edge>
    <edge id=":20_2" function="internal">
        <lane id=":20_2_0" index="0" speed="14.00" length="0.31" shape="156.58,207.25 156.65,206.95"/>
    </edge>
    <edge id=":20_3" function="internal">
        <lane id=":20_3_0" index="0" speed="3.65" length="2.34" shape="156.58,207.25 157.60,206.22 158.46,205.98"/>
    </edge>
    <edge id=":20_5" function="internal">
        <lane id=":20_5_0" index="0" speed="3.65" length="2.34" shape="158.46,205.98 159.17,206.52 159.73,207.85"/>
    </edge>
    <edge id=":21_0" function="internal">
        <lane id=":21_0_0" index="0" speed="14.00" length="0.31" shape="194.76,59.56 194.69,59.85"/>
    </edge>
    <edge id=":21_1" function="internal">
        <lane id=":21_1_0" index="0" speed="3.65" length="2.34" shape="194.76,59.56 193.70,60.54 192.83,60.74"/>
    </edge>
    <edge id=":21_4" function="internal">
        <lane id=":21_4_0" index="0" speed="3.65" length="2.34" shape="192.83,60.74 192.15,60.17 191.65,58.81"/>
    </edge>
    <edge id=":21_2" function="internal">
        <lane id=":21_2_0" index="0" speed="14.00" length="0.29" shape="191.58,59.10 191.65,58.81"/>
    </edge>
    <edge id=":21_3" function="internal">
        <lane id=":21_3_0" index="0" speed="3.65" length="2.34" shape="191.58,59.10 192.64,58.12 193.51,57.92"/>
    </edge>
    <edge id=":21_5" function="internal">
        <lane id=":21_5_0" index="0" speed="3.65" length="2.34" shape="193.51,57.92 194.20,58.50 194.69,59.85"/>
    </edge>
    <edge id=":22_0" function="internal">
        <lane id=":22_0_0" index="0" speed="14.00" length="14.43" shape="302.64,235.73 289.43,241.55"/>
    </edge>
    <edge id=":22_1" function="internal">
        <lane id=":22_1_0" index="0" speed="7.86" length="5.96" shape="302.64,235.73 298.77,236.82 296.85,236.54"/>
    </edge>
    <edge id=":22_2" function="internal">
        <lane id=":22_2_0" index="0" speed="3.65" length="2.34" shape="302.64,235.73 301.22,235.48 300.53,234.91"/>
    </edge>
    <edge id=":22_9" function="internal">
        <lane id=":22_9_0" index="0" speed="7.86" length="8.55" shape="296.85,236.54 295.57,236.35 293.04,234.33 291.19,230.76"/>
    </edge>
    <edge id=":22_10" function="internal">
        <lane id=":22_10_0" index="0" speed="3.65" length="2.34" shape="300.53,234.91 300.57,234.02 301.34,232.80"/>
    </edge>
    <edge id=":22_3" function="internal">
        <lane id=":22_3_0" index="0" speed="6.34" length="9.04" shape="294.21,229.71 295.37,231.93 296.94,233.19 298.93,233.48 301.34,232.80"/>
    </edge>
    <edge id=":22_4" function="internal">
        <lane id=":22_4_0" index="0" speed="8.27" length="14.32" shape="294.21,229.71 295.02,233.62 294.49,236.90 292.63,239.54 289.43,241.55"/>
    </edge>
    <edge id=":22_5" function="internal">
        <lane id=":22_5_0" index="0" speed="3.65" length="4.67" shape="294.21,229.71 293.85,231.11 293.23,231.75 292.34,231.63 291.19,230.76"/>
    </edge>
    <edge id=":22_6" function="internal">
        <lane id=":22_6_0" index="0" speed="6.83" length="9.45" shape="288.15,238.62 290.22,237.31 291.42,235.56 291.74,233.38 291.19,230.76"/>
    </edge>
    <edge id=":22_7" function="internal">
        <lane id=":22_7_0" index="0" speed="14.00" length="14.42" shape="288.15,238.62 301.34,232.80"/>
    </edge>
    <edge id=":22_8" function="internal">
        <lane id=":22_8_0" index="0" speed="3.65" length="2.34" shape="288.15,238.62 289.57,238.87 290.26,239.45"/>
    </edge>
    <edge id=":22_11" function="internal">
        <lane id=":22_11_0" index="0" speed="3.65" length="2.34" shape="290.26,239.45 290.21,240.34 289.43,241.55"/>
    </edge>
    <edge id=":23_0" function="internal">
        <lane id=":23_0_0" index="0" speed="4.04" length="1.61" shape="270.17,170.45 269.99,170.07 269.74,169.78 269.41,169.56 269.02,169.42"/>
    </edge>
    <edge id=":23_1" function="internal">
        <lane id=":23_1_0" index="0" speed="3.65" length="1.97" shape="270.17,170.45 270.53,169.05 270.90,168.67"/>
    </edge>
    <edge id=":23_4" function="internal">
        <lane id=":23_4_0" index="0" speed="3.65" length="2.70" shape="270.90,168.67 271.15,168.41 272.04,168.53 273.19,169.40"/>
    </edge>
    <edge id=":23_2" function="internal">
        <lane id=":23_2_0" index="0" speed="6.34" length="4.84" shape="269.75,166.30 270.93,166.72 271.90,167.38 272.65,168.27 273.19,169.40"/>
    </edge>
    <edge id=":23_3" function="internal">
        <lane id=":23_3_0" index="0" speed="3.65" length="2.70" shape="269.75,166.30 270.74,167.35 270.94,168.22 270.71,168.50"/>
    </edge>
    <edge id=":23_5" function="internal">
        <lane id=":23_5_0" index="0" speed="3.65" length="1.97" shape="270.71,168.50 270.37,168.91 269.02,169.42"/>
    </edge>
    <edge id=":24_0" function="internal">
        <lane id=":24_0_0" index="0" speed="14.00" length="14.13" shape="60.88,256.72 47.04,253.83"/>
    </edge>
    <edge id=":24_1" function="internal">