<?xml version="1.0" encoding="UTF-8"?>

<!-- generated on 03/10/19 15:52:26 by Eclipse SUMO duarouter Version 1.1.0
<configuration xmlns:xsi="http://www.w3.org/2001/XMLSchema-instance" xsi:noNamespaceSchemaLocation="http://sumo.dlr.de/xsd/duarouterConfiguration.xsd">

    <input>
        <net-file value="net-1net.net.xml"/>
        <route-files value="tripas.trips.xml"/>
    </input>

    <output>
        <output-file value="rout.rou.xml"/>
        <alternatives-output value="rout.rou.alt.xml"/>
    </output>

    <time>
        <begin value="0.0"/>
        <end value="3600.0"/>
    </time>

    <report>
        <no-warnings value="true"/>
        <ignore-errors value="true"/>
        <no-step-log value="true"/>
    </report>

</configuration>
-->

<routes xmlns:xsi="http://www.w3.org/2001/XMLSchema-instance" xsi:noNamespaceSchemaLocation="http://sumo.dlr.de/xsd/routes_file.xsd">
    <vehicle id="0" depart="3.00">
        <route edges="29 4 16"/>
    </vehicle>
    <vehicle id="1" depart="7.00">
        <route edges="49 50 22 45 10"/>
    </vehicle>
    <vehicle id="2" depart="10.00">
        <route edges="21 20 50 22 45"/>
    </vehicle>
    <vehicle id="3" depart="15.00">
        <route edges="68 43 66 40"/>
    </vehicle>
    <vehicle id="4" depart="27.00">
        <route edges="17 43 63 12"/>
    </vehicle>
    <vehicle id="5" depart="48.00">
        <route edges="4 43 66"/>
    </vehicle>
    <vehicle id="6" depart="52.00">
        <route edges="52 53 34 19"/>
    </vehicle>
    <vehicle id="7" depart="55.00">
        <route edges="53 34 19"/>
    </vehicle>
    <vehicle id="8" depart="74.00">
        <route edges="17 43 63 12"/>
    </vehicle>
    <vehicle id="9" depart="77.00">
        <route edges="66 39 12 6 7"/>
    </vehicle>
    <vehicle id="10" depart="98.00">
        <route edges="12 13 32 40"/>
    </vehicle>
    <vehicle id="11" depart="99.00">
        <route edges="41 40 52 23 51 21 20"/>
    </vehicle>
    <vehicle id="12" depart="110.00">
        <route edges="13 27 60"/>
    </vehicle>
    <vehicle id="13" depart="126.00">
        <route edges="6"/>
    </vehicle>
    <vehicle id="14" depart="130.00">
        <route edges="3 20 50 22 53 34 29 46"/>
    </vehicle>
    <vehicle id="15" depart="152.00">
        <route edges="12 6 58 20 50 30"/>
    </vehicle>
    <vehicle id="16" depart="153.00">
        <route edges="48 57 22 53 34 29"/>
    </vehicle>
    <vehicle id="17" depart="169.00">
        <route edges="66 40 52 23 51 21 71"/>
    </vehicle>
    <vehicle id="18" depart="172.00">
        <route edges="63 62 68 5 46"/>
    </vehicle>
    <vehicle id="19" depart="178.00">
        <route edges="60 62 66 40 34"/>
    </vehicle>
    <vehicle id="20" depart="186.00">
        <route edges="32 40 52 23 30"/>
    </vehicle>
    <vehicle id="21" depart="189.00">
        <route edges="20 21 71 7 13 12"/>
    </vehicle>
    <vehicle id="22" depart="196.00">
        <route edges="19 34 29 46 47"/>
    </vehicle>
    <vehicle id="23" depart="205.00">
        <route edges="7 6 58 20 50 30"/>
    </vehicle>
    <vehicle id="24" depart="207.00">
        <route edges="17 5 28"/>
    </vehicle>
    <vehicle id="25" depart="221.00">
        <route edges="-gneE6 13"/>
    </vehicle>
    <vehicle id="26" depart="231.00">
        <route edges="68 43 63 27"/>
    </vehicle>
    <vehicle id="27" depart="239.00">
        <route edges="41 39 12 6 14 64"/>
    </vehicle>
    <vehicle id="28" depart="245.00">
        <route edges="6 58 20 50 22 53"/>
    </vehicle>
    <vehicle id="29" depart="262.00">
        <route edges="40 34 17"/>
    </vehicle>
    <vehicle id="30" depart="263.00">
        <route edges="62 66 40 52 23 30"/>
    </vehicle>
    <vehicle id="31" depart="272.00">
        <route edges="68 16 19 34"/>
    </vehicle>
    <vehicle id="32" depart="275.00">
        <route edges="23 22 53 41 67 66"/>
    </vehicle>
    <vehicle id="33" depart="291.00">
        <route edges="55 3 20 50 22 53 41"/>
    </vehicle>
    <vehicle id="34" depart="306.00">
        <route edges="5 28 19 52 23 22"/>
    </vehicle>
    <vehicle id="35" depart="308.00">
        <route edges="46 47 28 19 52 23"/>
    </vehicle>
    <vehicle id="36" depart="329.00">
        <route edges="43 63 12 6 58 20"/>
    </vehicle>
    <vehicle id="37" depart="338.00">
        <route edges="67 63 -gneE6"/>
    </vehicle>
    <vehicle id="38" depart="341.00">
        <route edges="23 22 53 41 67 63"/>
    </vehicle>
    <vehicle id="39" depart="343.00">
        <route edges="63 62 68 16 17"/>
    </vehicle>
    <vehicle id="40" depart="350.00">
        <route edges="71 7 13 62 63"/>
    </vehicle>
    <vehicle id="41" depart="350.00">
        <route edges="40 52 23 51 48 49"/>
    </vehicle>
    <vehicle id="42" depart="370.00">
        <route edges="57 22 53 34"/>
    </vehicle>
    <vehicle id="43" depart="371.00">
        <route edges="22 53 41 39 62"/>
    </vehicle>
    <vehicle id="44" depart="374.00">
        <route edges="43 63"/>
    </vehicle>
    <vehicle id="45" depart="379.00">
        <route edges="58 71 7 13 62 68 16"/>
    </vehicle>
    <vehicle id="46" depart="388.00">
        <route edges="16 19 52 23 51 48 37"/>
    </vehicle>
    <vehicle id="47" depart="399.00">
        <route edges="46 47 28 29"/>
    </vehicle>
    <vehicle id="48" depart="410.00">
        <route edges="19 41 39 12"/>
    </vehicle>
    <vehicle id="49" depart="410.00">
        <route edges="28 29 46"/>
    </vehicle>
    <vehicle id="50" depart="413.00">
        <route edges="29 4 43 63 12 6 7"/>
    </vehicle>
    <vehicle id="51" depart="419.00">
        <route edges="51 21 55"/>
    </vehicle>
    <vehicle id="52" depart="437.00">
        <route edges="48 37 36"/>
    </vehicle>
    <vehicle id="53" depart="438.00">
        <route edges="13 27 6 58 71"/>
    </vehicle>
    <vehicle id="54" depart="454.00">
        <route edges="39 12 6 58"/>
    </vehicle>
    <vehicle id="55" depart="457.00">
        <route edges="63 62 68 5 28"/>
    </vehicle>
    <vehicle id="56" depart="462.00">
        <route edges="12 6 58 20 50 30"/>
    </vehicle>
    <vehicle id="57" depart="466.00">
        <route edges="57 51 21 20"/>
    </vehicle>
    <vehicle id="58" depart="466.00">
        <route edges="5 28 19 34"/>
    </vehicle>
    <vehicle id="59" depart="485.00">
        <route edges="64 7 13 62 66"/>
    </vehicle>
    <vehicle id="60" depart="490.00">
        <route edges="29 4 43 63 12 6 7"/>
    </vehicle>
    <vehicle id="61" depart="493.00">
        <route edges="46 47 28 19 52 45 10"/>
    </vehicle>
    <vehicle id="62" depart="522.00">
        <route edges="13 27 60"/>
    </vehicle>
    <vehicle id="63" depart="542.00">
        <route edges="27 6 58 20 50"/>
    </vehicle>
    <vehicle id="64" depart="551.00">
        <route edges="4 43 63 12 6 14 36 37"/>
    </vehicle>
    <vehicle id="65" depart="566.00">
        <route edges="47 28 19 52 45"/>
    </vehicle>
    <vehicle id="66" depart="584.00">
        <route edges="27 13"/>
    </vehicle>
    <vehicle id="67" depart="596.00">
        <route edges="67 63 12"/>
    </vehicle>
    <vehicle id="68" depart="596.00">
        <route edges="30 37 64 7 gneE6"/>
    </vehicle>
    <vehicle id="69" depart="604.00">
        <route edges="6 7 gneE6"/>
    </vehicle>
    <vehicle id="70" depart="604.00">
        <route edges="7 13 62 66"/>
    </vehicle>
    <vehicle id="71" depart="605.00">
        <route edges="57 22 53 41 67"/>
    </vehicle>
    <vehicle id="72" depart="608.00">
        <route edges="43 63 12 6 14 3"/>
    </vehicle>
    <vehicle id="73" depart="613.00">
        <route edges="67 66 40"/>
    </vehicle>
    <vehicle id="74" depart="615.00">
        <route edges="22 45 10"/>
    </vehicle>
    <vehicle id="75" depart="621.00">
        <route edges="67 66 40 52"/>
    </vehicle>
    <vehicle id="76" depart="622.00">
        <route edges="13 62 68 5 46"/>
    </vehicle>
    <vehicle id="77" depart="632.00">
        <route edges="27 6 14 36 37"/>
    </vehicle>
    <vehicle id="78" depart="633.00">
        <route edges="37 64 7 13 62 68 5 28"/>
    </vehicle>
    <vehicle id="79" depart="666.00">
        <route edges="48 37 64 14"/>
    </vehicle>
    <vehicle id="80" depart="673.00">
        <route edges="51"/>
    </vehicle>
    <vehicle id="81" depart="682.00">
        <route edges="29 4 43"/>
    </vehicle>
    <vehicle id="82" depart="688.00">
        <route edges="52 23 51"/>
    </vehicle>
    <vehicle id="83" depart="695.00">
        <route edges="71 7 60"/>
    </vehicle>
    <vehicle id="84" depart="696.00">
        <route edges="13 27 6 14 36 57"/>
    </vehicle>
    <vehicle id="85" depart="696.00">
        <route edges="62 63 12 6 14 36"/>
    </vehicle>
    <vehicle id="86" depart="703.00">
        <route edges="28 19 52 23 51 50"/>
    </vehicle>
    <vehicle id="87" depart="705.00">
        <route edges="7 13 32 40 52 23"/>
    </vehicle>
    <vehicle id="88" depart="743.00">
        <route edges="5 28"/>
    </vehicle>
    <vehicle id="89" depart="746.00">
        <route edges="60 27 6 58 20 48"/>
    </vehicle>
    <vehicle id="90" depart="749.00">
        <route edges="57 22 53 41 39 27"/>
    </vehicle>
    <vehicle id="91" depart="786.00">
        <route edges="51 21 71 58"/>
    </vehicle>
    <vehicle id="92" depart="792.00">
        <route edges="27 6 14 64"/>
    </vehicle>
    <vehicle id="93" depart="796.00">
        <route edges="57 22 53 34 17 16"/>
    </vehicle>
    <vehicle id="94" depart="806.00">
        <route edges="57 22 53 41 39 12"/>
    </vehicle>
    <vehicle id="95" depart="823.00">
        <route edges="20 21 71 7 13 62 66"/>
    </vehicle>
    <vehicle id="96" depart="835.00">
        <route edges="34 19 52 23 51 21 20"/>
    </vehicle>
    <vehicle id="97" depart="873.00">
        <route edges="67 68 16 29"/>
    </vehicle>
    <vehicle id="98" depart="873.00">
        <route edges="43 66"/>
    </vehicle>
    <vehicle id="99" depart="876.00">
        <route edges="46 47 28 29"/>
    </vehicle>
    <vehicle id="100" depart="879.00">
        <route edges="68 16 19 41"/>
    </vehicle>
    <vehicle id="101" depart="881.00">
        <route edges="36 37 64"/>
    </vehicle>
    <vehicle id="102" depart="885.00">
        <route edges="36 37 3 55"/>
    </vehicle>
    <vehicle id="103" depart="893.00">
        <route edges="57 51 21 71 7 60"/>
    </vehicle>
    <vehicle id="104" depart="896.00">
        <route edges="36 37 3 55"/>
    </vehicle>
    <vehicle id="105" depart="899.00">
        <route edges="68 5 4"/>
    </vehicle>
    <vehicle id="106" depart="903.00">
        <route edges="55 64 7 13 62 68 16 17"/>
    </vehicle>
    <vehicle id="107" depart="910.00">
        <route edges="47 4 43 63 27"/>
    </vehicle>
    <vehicle id="108" depart="911.00">
        <route edges="43 63 12 6 58 20"/>
    </vehicle>
    <vehicle id="109" depart="913.00">
        <route edges="52 23 51 48 49"/>
    </vehicle>
    <vehicle id="110" depart="914.00">
        <route edges="20 21 55"/>
    </vehicle>
    <vehicle id="111" depart="927.00">
        <route edges="13 62 68 5 28"/>
    </vehicle>
    <vehicle id="112" depart="928.00">
        <route edges="71 14 36 37"/>
    </vehicle>
    <vehicle id="113" depart="931.00">
        <route edges="71 58 20 50 22 23"/>
    </vehicle>
    <vehicle id="114" depart="942.00">
        <route edges="5 4 43 63 12 6 7"/>
    </vehicle>
    <vehicle id="115" depart="945.00">
        <route edges="29 28 19 52 23 51 48 37"/>
    </vehicle>
    <vehicle id="116" depart="953.00">
        <route edges="71 7 13 62 68 16"/>
    </vehicle>
    <vehicle id="117" depart="955.00">
        <route edges="58 20 50 22 53 41 39"/>
    </vehicle>
    <vehicle id="118" depart="964.00">
        <route edges="12 13 62 63"/>
    </vehicle>
    <vehicle id="119" depart="964.00">
        <route edges="20 50 22 53 34 17"/>
    </vehicle>
    <vehicle id="120" depart="1007.00">
        <route edges="17 43 63 12 6 14 36 49"/>
    </vehicle>
    <vehicle id="121" depart="1009.00">
        <route edges="21 71 7"/>
    </vehicle>
    <vehicle id="122" depart="1026.00">
        <route edges="47 28 19 52 23 51 48 37"/>
    </vehicle>
    <vehicle id="123" depart="1028.00">
        <route edges="52 23 51 21 55 36"/>
    </vehicle>
    <vehicle id="124" depart="1041.00">
        <route edges="60 27 6 7"/>
    </vehicle>
    <vehicle id="125" depart="1042.00">
        <route edges="16 19"/>
    </vehicle>
    <vehicle id="126" depart="1061.00">
        <route edges="39 32 40 52 45"/>
    </vehicle>
    <vehicle id="127" depart="1064.00">
        <route edges="66"/>
    </vehicle>
    <vehicle id="128" depart="1079.00">
        <route edges="3 71 7 6"/>
    </vehicle>
    <vehicle id="129" depart="1082.00">
        <route edges="66 40 52 23 51 21 71"/>
    </vehicle>
    <vehicle id="130" depart="1104.00">
        <route edges="43 68 5 28"/>
    </vehicle>
    <vehicle id="131" depart="1115.00">
        <route edges="28 17 43 63 12 60"/>
    </vehicle>
    <vehicle id="132" depart="1123.00">
        <route edges="20 50 22 53 34 29"/>
    </vehicle>
    <vehicle id="133" depart="1128.00">
        <route edges="10 23 51 21 55 36"/>
    </vehicle>
    <vehicle id="134" depart="1140.00">
        <route edges="49 50 51"/>
    </vehicle>
    <vehicle id="135" depart="1147.00">
        <route edges="39 62 68 5 46"/>
    </vehicle>
    <vehicle id="136" depart="1150.00">
        <route edges="39 32 67"/>
    </vehicle>
    <vehicle id="137" depart="1152.00">
        <route edges="63 62 68 43"/>
    </vehicle>
    <vehicle id="138" depart="1152.00">
        <route edges="67 68"/>
    </vehicle>
    <vehicle id="139" depart="1153.00">
        <route edges="47 28 19 52 23"/>
    </vehicle>
    <vehicle id="140" depart="1155.00">
        <route edges="46 47 4 43"/>
    </vehicle>
    <vehicle id="141" depart="1163.00">
        <route edges="13 27 6 58 20 50"/>
    </vehicle>
    <vehicle id="142" depart="1181.00">
        <route edges="29 28 19 52 23"/>
    </vehicle>
    <vehicle id="143" depart="1194.00">
        <route edges="17 43 63 -gneE6"/>
    </vehicle>
    <vehicle id="144" depart="1198.00">
        <route edges="4 16 19 52 23 51 21"/>
    </vehicle>
    <vehicle id="145" depart="1207.00">
        <route edges="13 62 68 5"/>
    </vehicle>
    <vehicle id="146" depart="1227.00">
        <route edges="67 68"/>
    </vehicle>
    <vehicle id="147" depart="1230.00">
        <route edges="60 62 68 5 46"/>
    </vehicle>
    <vehicle id="148" depart="1231.00">
        <route edges="55 36 57"/>
    </vehicle>
    <vehicle id="149" depart="1232.00">
        <route edges="-gneE6 6 58 71"/>
    </vehicle>
    <vehicle id="150" depart="1251.00">
        <route edges="41 40 52 23 51 48"/>
    </vehicle>
    <vehicle id="151" depart="1255.00">
        <route edges="68 43 63 12 6 7"/>
    </vehicle>
    <vehicle id="152" depart="1268.00">
        <route edges="13 62 68 43"/>
    </vehicle>
    <vehicle id="153" depart="1278.00">
        <route edges="4 43 68"/>
    </vehicle>
    <vehicle id="154" depart="1293.00">
        <route edges="53 52 23 51 50"/>
    </vehicle>
    <vehicle id="155" depart="1294.00">
        <route edges="27 6 14 64"/>
    </vehicle>
    <vehicle id="156" depart="1323.00">
        <route edges="27 13 32 40 52 53"/>
    </vehicle>
    <vehicle id="157" depart="1352.00">
        <route edges="63 27"/>
    </vehicle>
    <vehicle id="158" depart="1354.00">
        <route edges="7 13 32 40 52 45"/>
    </vehicle>
    <vehicle id="159" depart="1360.00">
        <route edges="16 17"/>
    </vehicle>
    <vehicle id="160" depart="1370.00">
        <route edges="45 10 23 30"/>
    </vehicle>
    <vehicle id="161" depart="1373.00">
        <route edges="-gneE6 13 62 68 5 46 47"/>
    </vehicle>
    <vehicle id="162" depart="1382.00">
        <route edges="12 6 58 20 50 30"/>
    </vehicle>
    <vehicle id="163" depart="1385.00">
        <route edges="53 41 67"/>
    </vehicle>
    <vehicle id="164" depart="1392.00">
        <route edges="40 34"/>
    </vehicle>
    <vehicle id="165" depart="1407.00">
        <route edges="67 63 12 6 58 55"/>
    </vehicle>
    <vehicle id="166" depart="1411.00">
        <route edges="71 58 20 50 22"/>
    </vehicle>
    <vehicle id="167" depart="1412.00">
        <route edges="43 63 12 6 14 36"/>
    </vehicle>
    <vehicle id="168" depart="1412.00">
        <route edges="30 57 22 53 52"/>
    </vehicle>
    <vehicle id="169" depart="1419.00">
        <route edges="20 50 51"/>
    </vehicle>
    <vehicle id="170" depart="1420.00">
        <route edges="13 27 6 14 36 57"/>
    </vehicle>
    <vehicle id="171" depart="1429.00">
        <route edges="71 7 13"/>
    </vehicle>
    <vehicle id="172" depart="1448.00">
        <route edges="64 58 20 50"/>
    </vehicle>
    <vehicle id="173" depart="1463.00">
        <route edges="62"/>
    </vehicle>
    <vehicle id="174" depart="1466.00">
        <route edges="40 34 17 5"/>
    </vehicle>
    <vehicle id="175" depart="1484.00">
        <route edges="50 22 53 41 39"/>
    </vehicle>
    <vehicle id="176" depart="1495.00">
        <route edges="22 53 41 39 12"/>
    </vehicle>
    <vehicle id="177" depart="1503.00">
        <route edges="30 37 64 7 gneE6"/>
    </vehicle>
    <vehicle id="178" depart="1508.00">
        <route edges="37 64 7 13 62 68 16 29"/>
    </vehicle>
    <vehicle id="179" depart="1512.00">
        <route edges="41 40 52 23 51 48 49"/>
    </vehicle>
    <vehicle id="180" depart="1514.00">
        <route edges="20 21 55"/>
    </vehicle>
    <vehicle id="181" depart="1543.00">
        <route edges="20 48"/>
    </vehicle>
    <vehicle id="182" depart="1546.00">
        <route edges="50 51 21 55 36"/>
    </vehicle>
    <vehicle id="183" depart="1550.00">
        <route edges="60 27 6 58 71"/>
    </vehicle>
    <vehicle id="184" depart="1576.00">
        <route edges="50 51 21 71 7 6"/>
    </vehicle>
    <vehicle id="185" depart="1592.00">
        <route edges="52 53 34 17 43"/>
    </vehicle>
    <vehicle id="186" depart="1593.00">
        <route edges="30 57 22 53 34 29 28"/>
    </vehicle>
    <vehicle id="187" depart="1625.00">
        <route edges="49 21 71 7 13 -gneE6"/>
    </vehicle>
    <vehicle id="188" depart="1645.00">
        <route edges="29 4 43 63 -gneE6"/>
    </vehicle>
    <vehicle id="189" depart="1683.00">
        <route edges="5 28 19 52 53"/>
    </vehicle>
    <vehicle id="190" depart="1695.00">
        <route edges="29 28 19 52 23 51 48 49"/>
    </vehicle>
    <vehicle id="191" depart="1724.00">
        <route edges="13 62 68 5"/>
    </vehicle>
    <vehicle id="192" depart="1726.00">
        <route edges="46 47 4 43 63 -gneE6"/>
    </vehicle>
    <vehicle id="193" depart="1749.00">
        <route edges="5 28 19 41 40"/>
    </vehicle>
    <vehicle id="194" depart="1790.00">
        <route edges="23 51 21 55 3"/>
    </vehicle>
    <vehicle id="195" depart="1829.00">
        <route edges="34 17 43 63 12 6 58"/>
    </vehicle>
    <vehicle id="196" depart="1839.00">
        <route edges="34 17 43 63 12 6 14 3"/>
    </vehicle>
    <vehicle id="197" depart="1845.00">
        <route edges="gneE6 27 6 14 36 49"/>
    </vehicle>
    <vehicle id="198" depart="1847.00">
        <route edges="22 53 41 39 12"/>
    </vehicle>
    <vehicle id="199" depart="1886.00">
        <route edges="39 -gneE6"/>
    </vehicle>
    <vehicle id="200" depart="1893.00">
        <route edges="58 20 50 22 53 41 67"/>
    </vehicle>
    <vehicle id="201" depart="1895.00">
        <route edges="13 27 6 14 36 57"/>
    </vehicle>
    <vehicle id="202" depart="1898.00">
        <route edges="19 34 29 46"/>
    </vehicle>
    <vehicle id="203" depart="1918.00">
        <route edges="58 20 50 22 53 34 29 4"/>
    </vehicle>
    <vehicle id="204" depart="1924.00">
        <route edges="20 50 22 53 34 29 46"/>
    </vehicle>
    <vehicle id="205" depart="1954.00">
        <route edges="71 7 13 62 68"/>
    </vehicle>
    <vehicle id="206" depart="1966.00">
        <route edges="62 63 12 6 14 36"/>
    </vehicle>
    <vehicle id="207" depart="1971.00">
        <route edges="17 43 63 12 6 58 55"/>
    </vehicle>
    <vehicle id="208" depart="1972.00">
        <route edges="17 43 63 12 6 58 55"/>
    </vehicle>
    <vehicle id="209" depart="1972.00">
        <route edges="-gneE6 6 58 71"/>
    </vehicle>
    <vehicle id="210" depart="1980.00">
        <route edges="48 57 22 53 34 29 28"/>
    </vehicle>
    <vehicle id="211" depart="1988.00">
        <route edges="gneE6 27 6 14 36 49"/>
    </vehicle>
    <vehicle id="212" depart="2002.00">
        <route edges="13 27 6"/>
    </vehicle>
    <vehicle id="213" depart="2004.00">
        <route edges="21 20"/>
    </vehicle>
    <vehicle id="214" depart="2005.00">
        <route edges="34 17 43 68"/>
    </vehicle>
    <vehicle id="215" depart="2025.00">
        <route edges="36 49 48"/>
    </vehicle>
    <vehicle id="216" depart="2034.00">
        <route edges="51 50 22 53 34 29 4"/>
    </vehicle>
    <vehicle id="217" depart="2041.00">
        <route edges="62 63 12 6"/>
    </vehicle>
    <vehicle id="218" depart="2048.00">
        <route edges="34 19 52 23 51 21 71"/>
    </vehicle>
    <vehicle id="219" depart="2060.00">
        <route edges="49 50 22 45"/>
    </vehicle>
    <vehicle id="220" depart="2066.00">
        <route edges="34 19 52"/>
    </vehicle>
    <vehicle id="221" depart="2068.00">
        <route edges="gneE6 12"/>
    </vehicle>
    <vehicle id="222" depart="2080.00">
        <route edges="27 13"/>
    </vehicle>
    <vehicle id="223" depart="2081.00">
        <route edges="40 52 53"/>
    </vehicle>
    <vehicle id="224" depart="2085.00">
        <route edges="63 12 6 14 36 57"/>
    </vehicle>
    <vehicle id="225" depart="2089.00">
        <route edges="5 4 43 66"/>
    </vehicle>
    <vehicle id="226" depart="2089.00">
        <route edges="57 22 23"/>
    </vehicle>
    <vehicle id="227" depart="2098.00">
        <route edges="32 40 52 53"/>
    </vehicle>
    <vehicle id="228" depart="2105.00">
        <route edges="60 27 6 14 64"/>
    </vehicle>
    <vehicle id="229" depart="2128.00">
        <route edges="14 64 7 13 62 68"/>
    </vehicle>
    <vehicle id="230" depart="2135.00">
        <route edges="43 68 16 17"/>
    </vehicle>
    <vehicle id="231" depart="2156.00">
        <route edges="68 16 29"/>
    </vehicle>
    <vehicle id="232" depart="2161.00">
        <route edges="36 49"/>
    </vehicle>
    <vehicle id="233" depart="2185.00">
        <route edges="64 14 36 49"/>
    </vehicle>
    <vehicle id="234" depart="2188.00">
        <route edges="39"/>
    </vehicle>
    <vehicle id="235" depart="2197.00">
        <route edges="21 71 7 13 27"/>
    </vehicle>
    <vehicle id="236" depart="2204.00">
        <route edges="58 20 48"/>
    </vehicle>
    <vehicle id="237" depart="2211.00">
        <route edges="34 17 43 63 12 6 14 64"/>
    </vehicle>
    <vehicle id="238" depart="2221.00">
        <route edges="49 21 71 7 13 -gneE6"/>
    </vehicle>
    <vehicle id="239" depart="2235.00">
        <route edges="41 67"/>
    </vehicle>
    <vehicle id="240" depart="2251.00">
        <route edges="gneE6 32"/>
    </vehicle>
    <vehicle id="241" depart="2256.00">
        <route edges="5 28 19 52 23 30"/>
    </vehicle>
    <vehicle id="242" depart="2272.00">
        <route edges="7 13 32 40 34"/>
    </vehicle>
    <vehicle id="243" depart="2275.00">
        <route edges="12 13 32 40 34"/>
    </vehicle>
    <vehicle id="244" depart="2298.00">
        <route edges="27 13 62 68 16 29"/>
    </vehicle>
    <vehicle id="245" depart="2302.00">
        <route edges="43 66 40 52 53"/>
    </vehicle>
    <vehicle id="246" depart="2304.00">
        <route edges="4 16 19 41"/>
    </vehicle>
    <vehicle id="247" depart="2306.00">
        <route edges="57 51 21"/>
    </vehicle>
    <vehicle id="248" depart="2323.00">
        <route edges="3 20 21"/>
    </vehicle>
    <vehicle id="249" depart="2334.00">
        <route edges="39 62 68 5 4"/>
    </vehicle>
    <vehicle id="250" depart="2340.00">
        <route edges="48"/>
    </vehicle>
    <vehicle id="251" depart="2340.00">
        <route edges="12 6 14 36 57"/>
    </vehicle>
    <vehicle id="252" depart="2346.00">
        <route edges="gneE6 62 66 40 52 45 10"/>
    </vehicle>
    <vehicle id="253" depart="2355.00">
        <route edges="64 58 20 50 22 53"/>
    </vehicle>
    <vehicle id="254" depart="2357.00">
        <route edges="63 27"/>
    </vehicle>
    <vehicle id="255" depart="2367.00">
        <route edges="32 67 66"/>
    </vehicle>
    <vehicle id="256" depart="2372.00">
        <route edges="20 21 71 7 13 -gneE6"/>
    </vehicle>
    <vehicle id="257" depart="2381.00">
        <route edges="41 40 52 23 51 48 49"/>
    </vehicle>
    <vehicle id="258" depart="2395.00">
        <route edges="51 21 71 7 60"/>
    </vehicle>
    <vehicle id="259" depart="2397.00">
        <route edges="67 63 12"/>
    </vehicle>
    <vehicle id="260" depart="2399.00">
        <route edges="22 23 51 21"/>
    </vehicle>
    <vehicle id="261" depart="2405.00">
        <route edges="52 53 41 67 63"/>
    </vehicle>
    <vehicle id="262" depart="2413.00">
        <route edges="7 6 58 20 50"/>
    </vehicle>
    <vehicle id="263" depart="2427.00">
        <route edges="-gneE6 13 32"/>
    </vehicle>
    <vehicle id="264" depart="2446.00">
        <route edges="37 3 20 50 22 53"/>
    </vehicle>
    <vehicle id="265" depart="2464.00">
        <route edges="gneE6 12"/>
    </vehicle>
    <vehicle id="266" depart="2477.00">
        <route edges="12 13 62 68"/>
    </vehicle>
    <vehicle id="267" depart="2482.00">
        <route edges="57 51 21 71 58"/>
    </vehicle>
    <vehicle id="268" depart="2492.00">
        <route edges="46 47 28 19 52 23 22"/>
    </vehicle>
    <vehicle id="269" depart="2506.00">
        <route edges="43 68 5 28"/>
    </vehicle>
    <vehicle id="270" depart="2517.00">
        <route edges="64 7"/>
    </vehicle>
    <vehicle id="271" depart="2524.00">
        <route edges="17 16 19 52 23 51 48"/>
    </vehicle>
    <vehicle id="272" depart="2536.00">
        <route edges="14 64 7 13 62 68 16 29"/>
    </vehicle>
    <vehicle id="273" depart="2538.00">
        <route edges="48 37 64 7"/>
    </vehicle>
    <vehicle id="274" depart="2544.00">
        <route edges="63 12 6 58 71"/>
    </vehicle>
    <vehicle id="275" depart="2548.00">
        <route edges="48 37 64 7 13 32"/>
    </vehicle>
    <vehicle id="276" depart="2552.00">
        <route edges="28 17 43 63 12 13"/>
    </vehicle>
    <vehicle id="277" depart="2566.00">
        <route edges="41 39 12"/>
    </vehicle>
    <vehicle id="278" depart="2586.00">
        <route edges="50 22 53 52"/>
    </vehicle>
    <vehicle id="279" depart="2614.00">
        <route edges="4 16 19 52 45"/>
    </vehicle>
    <vehicle id="280" depart="2622.00">
        <route edges="71 58 20 50 22 45 10"/>
    </vehicle>
    <vehicle id="281" depart="2637.00">
        <route edges="29 4 43 63 12 13"/>
    </vehicle>
    <vehicle id="282" depart="2691.00">
        <route edges="49 21 71 7 13 -gneE6"/>
    </vehicle>
    <vehicle id="283" depart="2692.00">
        <route edges="45 10 53 41 39 62"/>
    </vehicle>
    <vehicle id="284" depart="2694.00">
        <route edges="4 5 28"/>
    </vehicle>
    <vehicle id="285" depart="2706.00">
        <route edges="17 43 63 12 6 58 20"/>
    </vehicle>
    <vehicle id="286" depart="2723.00">
        <route edges="37 64 7 13 62"/>
    </vehicle>
    <vehicle id="287" depart="2724.00">
        <route edges="6 7 13 62 68 5"/>
    </vehicle>
    <vehicle id="288" depart="2736.00">
        <route edges="48 37 64 7 13 -gneE6"/>
    </vehicle>
    <vehicle id="289" depart="2757.00">
        <route edges="20 50 22 53 34 17 43"/>
    </vehicle>
    <vehicle id="290" depart="2761.00">
        <route edges="63 62 68 5 28"/>
    </vehicle>
    <vehicle id="291" depart="2766.00">
        <route edges="14 36 37"/>
    </vehicle>
    <vehicle id="292" depart="2769.00">
        <route edges="63 62 66 40 52 23"/>
    </vehicle>
    <vehicle id="293" depart="2778.00">
        <route edges="63 62 66 40 34"/>
    </vehicle>
    <vehicle id="294" depart="2840.00">
        <route edges="48 37 64 7 13"/>
    </vehicle>
    <vehicle id="295" depart="2849.00">
        <route edges="32 39"/>
    </vehicle>
    <vehicle id="296" depart="2854.00">
        <route edges="46 47 4 43 66"/>
    </vehicle>
    <vehicle id="297" depart="2863.00">
        <route edges="13 32 40 41"/>
    </vehicle>
    <vehicle id="298" depart="2866.00">
        <route edges="17 43 63 12 6 14 36"/>
    </vehicle>
    <vehicle id="299" depart="2866.00">
        <route edges="27 6 14 64"/>
    </vehicle>
    <vehicle id="300" depart="2873.00">
        <route edges="14 64 7"/>
    </vehicle>
    <vehicle id="301" depart="2883.00">
        <route edges="46 47 28 19 52 23"/>
    </vehicle>