<?xml version="1.0" encoding="UTF-8"?>
<!-- generated on 2019-03-10 15:52:25.889722 by $Id$
  options: -o tripas.trips.xml -n net-1net.net.xml -v -r rout.rou.xml -b 0 -e 3600 -p 10 <doubleminus>binomial 10
-->
<routes xmlns:xsi="http://www.w3.org/2001/XMLSchema-instance" xsi:noNamespaceSchemaLocation="http://sumo.dlr.de/xsd/routes_file.xsd">
    <trip id="0" depart="3.00" from="29" to="16"/>
    <trip id="1" depart="7.00" from="49" to="10"/>
    <trip id="2" depart="10.00" from="21" to="45"/>
    <trip id="3" depart="15.00" from="68" to="40"/>
    <trip id="4" depart="27.00" from="17" to="12"/>
    <trip id="5" depart="48.00" from="4" to="66"/>
    <trip id="6" depart="52.00" from="52" to="19"/>
    <trip id="7" depart="55.00" from="53" to="19"/>
    <trip id="8" depart="74.00" from="17" to="12"/>
    <trip id="9" depart="77.00" from="66" to="7"/>
    <trip id="10" depart="98.00" from="12" to="40"/>
    <trip id="11" depart="99.00" from="41" to="20"/>
    <trip id="12" depart="110.00" from="13" to="60"/>
    <trip id="13" depart="126.00" from="6" to="6"/>
    <trip id="14" depart="130.00" from="3" to="46"/>
    <trip id="15" depart="152.00" from="12" to="30"/>
    <trip id="16" depart="153.00" from="48" to="29"/>
    <trip id="17" depart="169.00" from="66" to="71"/>
    <trip id="18" depart="172.00" from="63" to="46"/>
    <trip id="19" depart="178.00" from="60" to="34"/>
    <trip id="20" depart="186.00" from="32" to="30"/>
    <trip id="21" depart="189.00" from="20" to="12"/>
    <trip id="22" depart="196.00" from="19" to="47"/>
    <trip id="23" depart="205.00" from="7" to="30"/>
    <trip id="24" depart="207.00" from="17" to="28"/>
    <trip id="25" depart="221.00" from="-gneE6" to="13"/>
    <trip id="26" depart="231.00" from="68" to="27"/>
    <trip id="27" depart="239.00" from="41" to="64"/>
    <trip id="28" depart="245.00" from="6" to="53"/>
    <trip id="29" depart="262.00" from="40" to="17"/>
    <trip id="30" depart="263.00" from="62" to="30"/>
    <trip id="31" depart="272.00" from="68" to="34"/>
    <trip id="32" depart="275.00" from="23" to="66"/>
    <trip id="33" depart="291.00" from="55" to="41"/>
    <trip id="34" depart="306.00" from="5" to="22"/>
    <trip id="35" depart="308.00" from="46" to="23"/>
    <trip id="36" depart="329.00" from="43" to="20"/>
    <trip id="37" depart="338.00" from="67" to="-gneE6"/>
    <trip id="38" depart="341.00" from="23" to="63"/>
    <trip id="39" depart="343.00" from="63" to="17"/>
    <trip id="40" depart="350.00" from="71" to="63"/>
    <trip id="41" depart="350.00" from="40" to="49"/>
    <trip id="42" depart="370.00" from="57" to="34"/>
    <trip id="43" depart="371.00" from="22" to="62"/>
    <trip id="44" depart="374.00" from="43" to="63"/>
    <trip id="45" depart="379.00" from="58" to="16"/>
    <trip id="46" depart="388.00" from="16" to="37"/>
    <trip id="47" depart="399.00" from="46" to="29"/>
    <trip id="48" depart="410.00" from="19" to="12"/>
    <trip id="49" depart="410.00" from="28" to="46"/>
    <trip id="50" depart="413.00" from="29" to="7"/>
    <trip id="51" depart="419.00" from="51" to="55"/>
    <trip id="52" depart="437.00" from="48" to="36"/>
    <trip id="53" depart="438.00" from="13" to="71"/>
    <trip id="54" depart="454.00" from="39" to="58"/>
    <trip id="55" depart="457.00" from="63" to="28"/>
    <trip id="56" depart="462.00" from="12" to="30"/>
    <trip id="57" depart="466.00" from="57" to="20"/>
    <trip id="58" depart="466.00" from="5" to="34"/>
    <trip id="59" depart="485.00" from="64" to="66"/>
    <trip id="60" depart="490.00" from="29" to="7"/>
    <trip id="61" depart="493.00" from="46" to="10"/>
    <trip id="62" depart="522.00" from="13" to="60"/>
    <trip id="63" depart="542.00" from="27" to="50"/>
    <trip id="64" depart="551.00" from="4" to="37"/>
    <trip id="65" depart="566.00" from="47" to="45"/>
    <trip id="66" depart="584.00" from="27" to="13"/>
    <trip id="67" depart="596.00" from="67" to="12"/>
    <trip id="68" depart="596.00" from="30" to="gneE6"/>
    <trip id="69" depart="604.00" from="6" to="gneE6"/>
    <trip id="70" depart="604.00" from="7" to="66"/>
    <trip id="71" depart="605.00" from="57" to="67"/>
    <trip id="72" depart="608.00" from="43" to="3"/>
    <trip id="73" depart="613.00" from="67" to="40"/>
    <trip id="74" depart="615.00" from="22" to="10"/>
    <trip id="75" depart="621.00" from="67" to="52"/>
    <trip id="76" depart="622.00" from="13" to="46"/>
    <trip id="77" depart="632.00" from="27" to="37"/>
    <trip id="78" depart="633.00" from="37" to="28"/>
    <trip id="79" depart="666.00" from="48" to="14"/>
    <trip id="80" depart="673.00" from="51" to="51"/>
    <trip id="81" depart="682.00" from="29" to="43"/>
    <trip id="82" depart="688.00" from="52" to="51"/>
    <trip id="83" depart="695.00" from="71" to="60"/>
    <trip id="84" depart="696.00" from="13" to="57"/>
    <trip id="85" depart="696.00" from="62" to="36"/>
    <trip id="86" depart="703.00" from="28" to="50"/>
    <trip id="87" depart="705.00" from="7" to="23"/>
    <trip id="88" depart="743.00" from="5" to="28"/>
    <trip id="89" depart="746.00" from="60" to="48"/>
    <trip id="90" depart="749.00" from="57" to="27"/>
    <trip id="91" depart="786.00" from="51" to="58"/>
    <trip id="92" depart="792.00" from="27" to="64"/>
    <trip id="93" depart="796.00" from="57" to="16"/>
    <trip id="94" depart="806.00" from="57" to="12"/>
    <trip id="95" depart="823.00" from="20" to="66"/>
    <trip id="96" depart="835.00" from="34" to="20"/>
    <trip id="97" depart="873.00" from="67" to="29"/>
    <trip id="98" depart="873.00" from="43" to="66"/>
    <trip id="99" depart="876.00" from="46" to="29"/>
    <trip id="100" depart="879.00" from="68" to="41"/>
    <trip id="101" depart="881.00" from="36" to="64"/>
    <trip id="102" depart="885.00" from="36" to="55"/>
    <trip id="103" depart="893.00" from="57" to="60"/>
    <trip id="104" depart="896.00" from="36" to="55"/>
    <trip id="105" depart="899.00" from="68" to="4"/>
    <trip id="106" depart="903.00" from="55" to="17"/>
    <trip id="107" depart="910.00" from="47" to="27"/>
    <trip id="108" depart="911.00" from="43" to="20"/>
    <trip id="109" depart="913.00" from="52" to="49"/>
    <trip id="110" depart="914.00" from="20" to="55"/>
    <trip id="111" depart="927.00" from="13" to="28"/>
    <trip id="112" depart="928.00" from="71" to="37"/>
    <trip id="113" depart="931.00" from="71" to="23"/>
    <trip id="114" depart="942.00" from="5" to="7"/>
    <trip id="115" depart="945.00" from="29" to="37"/>
    <trip id="116" depart="953.00" from="71" to="16"/>
    <trip id="117" depart="955.00" from="58" to="39"/>
    <trip id="118" depart="964.00" from="12" to="63"/>
    <trip id="119" depart="964.00" from="20" to="17"/>
    <trip id="120" depart="1007.00" from="17" to="49"/>
    <trip id="121" depart="1009.00" from="21" to="7"/>
    <trip id="122" depart="1026.00" from="47" to="37"/>
    <trip id="123" depart="1028.00" from="52" to="36"/>
    <trip id="124" depart="1041.00" from="60" to="7"/>
    <trip id="125" depart="1042.00" from="16" to="19"/>
    <trip id="126" depart="1061.00" from="39" to="45"/>
    <trip id="127" depart="1064.00" from="66" to="66"/>
    <trip id="128" depart="1079.00" from="3" to="6"/>
    <trip id="129" depart="1082.00" from="66" to="71"/>
    <trip id="130" depart="1104.00" from="43" to="28"/>
    <trip id="131" depart="1115.00" from="28" to="60"/>
    <trip id="132" depart="1123.00" from="20" to="29"/>
    <trip id="133" depart="1128.00" from="10" to="36"/>
    <trip id="134" depart="1140.00" from="49" to="51"/>
    <trip id="135" depart="1147.00" from="39" to="46"/>
    <trip id="136" depart="1150.00" from="39" to="67"/>
    <trip id="137" depart="1152.00" from="63" to="43"/>
    <trip id="138" depart="1152.00" from="67" to="68"/>
    <trip id="139" depart="1153.00" from="47" to="23"/>
    <trip id="140" depart="1155.00" from="46" to="43"/>
    <trip id="141" depart="1163.00" from="13" to="50"/>
    <trip id="142" depart="1181.00" from="29" to="23"/>
    <trip id="143" depart="1194.00" from="17" to="-gneE6"/>
    <trip id="144" depart="1198.00" from="4" to="21"/>
    <trip id="145" depart="1207.00" from="13" to="5"/>
    <trip id="146" depart="1227.00" from="67" to="68"/>
    <trip id="147" depart="1230.00" from="60" to="46"/>
    <trip id="148" depart="1231.00" from="55" to="57"/>
    <trip id="149" depart="1232.00" from="-gneE6" to="71"/>
    <trip id="150" depart="1251.00" from="41" to="48"/>
    <trip id="151" depart="1255.00" from="68" to="7"/>
    <trip id="152" depart="1268.00" from="13" to="43"/>
    <trip id="153" depart="1278.00" from="4" to="68"/>
    <trip id="154" depart="1293.00" from="53" to="50"/>
    <trip id="155" depart="1294.00" from="27" to="64"/>
    <trip id="156" depart="1323.00" from="27" to="53"/>
    <trip id="157" depart="1352.00" from="63" to="27"/>
    <trip id="158" depart="1354.00" from="7" to="45"/>
    <trip id="159" depart="1360.00" from="16" to="17"/>
    <trip id="160" depart="1370.00" from="45" to="30"/>
    <trip id="161" depart="1373.00" from="-gneE6" to="47"/>
    <trip id="162" depart="1382.00" from="12" to="30"/>
    <trip id="163" depart="1385.00" from="53" to="67"/>
    <trip id="164" depart="1392.00" from="40" to="34"/>
    <trip id="165" depart="1407.00" from="67" to="55"/>
    <trip id="166" depart="1411.00" from="71" to="22"/>
    <trip id="167" depart="1412.00" from="43" to="36"/>
    <trip id="168" depart="1412.00" from="30" to="52"/>
    <trip id="169" depart="1419.00" from="20" to="51"/>
    <trip id="170" depart="1420.00" from="13" to="57"/>
    <trip id="171" depart="1429.00" from="71" to="13"/>
    <trip id="172" depart="1448.00" from="64" to="50"/>
    <trip id="173" depart="1463.00" from="62" to="62"/>
    <trip id="174" depart="1466.00" from="40" to="5"/>
    <trip id="175" depart="1484.00" from="50" to="39"/>
    <trip id="176" depart="1495.00" from="22" to="12"/>
    <trip id="177" depart="1503.00" from="30" to="gneE6"/>
    <trip id="178" depart="1508.00" from="37" to="29"/>
    <trip id="179" depart="1512.00" from="41" to="49"/>
    <trip id="180" depart="1514.00" from="20" to="55"/>
    <trip id="181" depart="1543.00" from="20" to="48"/>
    <trip id="182" depart="1546.00" from="50" to="36"/>
    <trip id="183" depart="1550.00" from="60" to="71"/>
    <trip id="184" depart="1576.00" from="50" to="6"/>
    <trip id="185" depart="1592.00" from="52" to="43"/>
    <trip id="186" depart="1593.00" from="30" to="28"/>
    <trip id="187" depart="1625.00" from="49" to="-gneE6"/>
    <trip id="188" depart="1645.00" from="29" to="-gneE6"/>
    <trip id="189" depart="1683.00" from="5" to="53"/>
    <trip id="190" depart="1695.00" from="29" to="49"/>
    <trip id="191" depart="1724.00" from="13" to="5"/>
    <trip id="192" depart="1726.00" from="46" to="-gneE6"/>
    <trip id="193" depart="1749.00" from="5" to="40"/>
    <trip id="194" depart="1790.00" from="23" to="3"/>
    <trip id="195" depart="1829.00" from="34" to="58"/>
    <trip id="196" depart="1839.00" from="34" to="3"/>
    <trip id="197" depart="1845.00" from="gneE6" to="49"/>
    <trip id="198" depart="1847.00" from="22" to="12"/>
    <trip id="199" depart="1886.00" from="39" to="-gneE6"/>
    <trip id="200" depart="1893.00" from="58" to="67"/>
    <trip id="201" depart="1895.00" from="13" to="57"/>
    <trip id="202" depart="1898.00" from="19" to="46"/>
    <trip id="203" depart="1918.00" from="58" to="4"/>
    <trip id="204" depart="1924.00" from="20" to="46"/>
    <trip id="205" depart="1954.00" from="71" to="68"/>
    <trip id="206" depart="1966.00" from="62" to="36"/>
    <trip id="207" depart="1971.00" from="17" to="55"/>
    <trip id="208" depart="1972.00" from="17" to="55"/>
    <trip id="209" depart="1972.00" from="-gneE6" to="71"/>
    <trip id="210" depart="1980.00" from="48" to="28"/>
    <trip id="211" depart="1988.00" from="gneE6" to="49"/>
    <trip id="212" depart="2002.00" from="13" to="6"/>
    <trip id="213" depart="2004.00" from="21" to="20"/>
    <trip id="214" depart="2005.00" from="34" to="68"/>
    <trip id="215" depart="2025.00" from="36" to="48"/>
    <trip id="216" depart="2034.00" from="51" to="4"/>
    <trip id="217" depart="2041.00" from="62" to="6"/>
    <trip id="218" depart="2048.00" from="34" to="71"/>
    <trip id="219" depart="2060.00" from="49" to="45"/>
    <trip id="220" depart="2066.00" from="34" to="52"/>
    <trip id="221" depart="2068.00" from="gneE6" to="12"/>
    <trip id="222" depart="2080.00" from="27" to="13"/>
    <trip id="223" depart="2081.00" from="40" to="53"/>
    <trip id="224" depart="2085.00" from="63" to="57"/>
    <trip id="225" depart="2089.00" from="5" to="66"/>
    <trip id="226" depart="2089.00" from="57" to="23"/>
    <trip id="227" depart="2098.00" from="32" to="53"/>
    <trip id="228" depart="2105.00" from="60" to="64"/>
    <trip id="229" depart="2128.00" from="14" to="68"/>
    <trip id="230" depart="2135.00" from="43" to="17"/>
    <trip id="231" depart="2156.00" from="68" to="29"/>
    <trip id="232" depart="2161.00" from="36" to="49"/>
    <trip id="233" depart="2185.00" from="64" to="49"/>
    <trip id="234" depart="2188.00" from="39" to="39"/>
    <trip id="235" depart="2197.00" from="21" to="27"/>
    <trip id="236" depart="2204.00" from="58" to="48"/>
    <trip id="237" depart="2211.00" from="34" to="64"/>
    <trip id="238" depart="2221.00" from="49" to="-gneE6"/>
    <trip id="239" depart="2235.00" from="41" to="67"/>
    <trip id="240" depart="2251.00" from="gneE6" to="32"/>
    <trip id="241" depart="2256.00" from="5" to="30"/>
    <trip id="242" depart="2272.00" from="7" to="34"/>
    <trip id="243" depart="2275.00" from="12" to="34"/>
    <trip id="244" depart="2298.00" from="27" to="29"/>
    <trip id="245" depart="2302.00" from="43" to="53"/>
    <trip id="246" depart="2304.00" from="4" to="41"/>
    <trip id="247" depart="2306.00" from="57" to="21"/>
    <trip id="248" depart="2323.00" from="3" to="21"/>
    <trip id="249" depart="2334.00" from="39" to="4"/>
    <trip id="250" depart="2340.00" from="48" to="48"/>
    <trip id="251" depart="2340.00" from="12" to="57"/>
    <trip id="252" depart="2346.00" from="gneE6" to="10"/>
    <trip id="253" depart="2355.00" from="64" to="53"/>
    <trip id="254" depart="2357.00" from="63" to="27"/>
    <trip id="255" depart="2367.00" from="32" to="66"/>
    <trip id="256" depart="2372.00" from="20" to="-gneE6"/>
    <trip id="257" depart="2381.00" from="41" to="49"/>
    <trip id="258" depart="2395.00" from="51" to="60"/>
    <trip id="259" depart="2397.00" from="67" to="12"/>
    <trip id="260" depart="2399.00" from="22" to="21"/>
    <trip id="261" depart="2405.00" from="52" to="63"/>
    <trip id="262" depart="2413.00" from="7" to="50"/>
    <trip id="263" depart="2427.00" from="-gneE6" to="32"/>
    <trip id="264" depart="2446.00" from="37" to="53"/>
    <trip id="265" depart="2464.00" from="gneE6" to="12"/>
    <trip id="266" depart="2477.00" from="12" to="68"/>
    <trip id="267" depart="2482.00" from="57" to="58"/>
    <trip id="268" depart="2492.00" from="46" to="22"/>
    <trip id="269" depart="2506.00" from="43" to="28"/>
    <trip id="270" depart="2517.00" from="64" to="7"/>
    <trip id="271" depart="2524.00" from="17" to="48"/>
    <trip id="272" depart="2536.00" from="14" to="29"/>
    <trip id="273" depart="2538.00" from="48" to="7"/>
    <trip id="274" depart="2544.00" from="63" to="71"/>
    <trip id="275" depart="2548.00" from="48" to="32"/>
    <trip id="276" depart="2552.00" from="28" to="13"/>
    <trip id="277" depart="2566.00" from="41" to="12"/>
    <trip id="278" depart="2586.00" from="50" to="52"/>
    <trip id="279" depart="2614.00" from="4" to="45"/>
    <trip id="280" depart="2622.00" from="71" to="10"/>
    <trip id="281" depart="2637.00" from="29" to="13"/>
    <trip id="282" depart="2691.00" from="49" to="-gneE6"/>
    <trip id="283" depart="2692.00" from="45" to="62"/>
    <trip id="284" depart="2694.00" from="4" to="28"/>
    <trip id="285" depart="2706.00" from="17" to="20"/>
    <trip id="286" depart="2723.00" from="37" to="62"/>
    <trip id="287" depart="2724.00" from="6" to="5"/>
    <trip id="288" depart="2736.00" from="48" to="-gneE6"/>
    <trip id="289" depart="2757.00" from="20" to="43"/>
    <trip id="290" depart="2761.00" from="63" to="28"/>
    <trip id="291" depart="2766.00" from="14" to="37"/>
    <trip id="292" depart="2769.00" from="63" to="23"/>
    <trip id="293" depart="2778.00" from="63" to="34"/>
    <trip id="294" depart="2840.00" from="48" to="13"/>
    <trip id="295" depart="2849.00" from="32" to="39"/>
    <trip id="296" depart="2854.00" from="46" to="66"/>
    <trip id="297" depart="2863.00" from="13" to="41"/>
    <trip id="298" depart="2866.00" from="17" to="36"/>
    <trip id="299" depart="2866.00" from="27" to="64"/>
    <trip id="300" depart="2873.00" from="14" to="7"/>
    <trip id="301" depart="2883.00" from="46" to="23"/>
    <trip id="302" depart="2904.00" from="5" to="34"/>
    <trip id="303" depart="2905.00" from="-gneE6" to="71"/>
    <trip id="304" depart="2906.00" from="gneE6" to="5"/>
    <trip id="305" depart="2907.00" from="20" to="45"/>
    <trip id="306" depart="2917.00" from="23" to="39"/>
    <trip id="307" depart="2925.00" from="-gneE6" to="3"/>
    <trip id="308" depart="2930.00" from="7" to="7"/>
    <trip id="309" depart="2939.00" from="63" to="60"/>
    <trip id="310" depart="2948.00" from="60" to="gneE6"/>
    <trip id="311" depart="2951.00" from="63" to="40"/>
    <trip id="312" depart="2965.00" from="62" to="39"/>
    <trip id="313" depart="2968.00" from="13" to="gneE6"/>
    <trip id="314" depart="2973.00" from="7" to="51"/>
    <trip id="315" depart="2988.00" from="14" to="51"/>
    <trip id="316" depart="3001.00" from="50" to="57"/>
    <trip id="317" depart="3007.00" from="36" to="32"/>
    <trip id="318" depart="3042.00" from="17" to="3"/>
    <trip id="319" depart="3052.00" from="68" to="64"/>
    <trip id="320" depart="3065.00" from="13" to="7"/>
    <trip id="321" depart="3067.00" from="22" to="60"/>
    <trip id="322" depart="3094.00" from="66" to="64"/>
    <trip id="323" depart="3095.00" from="41" to="gneE6"/>
    <trip id="324" depart="3105.00" from="55" to="3"/>
    <trip id="325" depart="3112.00" from="63" to="58"/>
    <trip id="326" depart="3117.00" from="27" to="17"/>
    <trip id="327" depart="3121.00" from="51" to="gneE6"/>
    <trip id="328" depart="3139.00" from="57" to="51"/>
    <trip id="329" depart="3145.00" from="13" to="52"/>
    <trip id="330" depart="3157.00" from="19" to="36"/>
    <trip id="331" depart="3159.00" from="gneE6" to="-gneE6"/>
    <trip id="332" depart="3168.00" from="58" to="21"/>
    <trip id="333" depart="3172.00" from="23" to="57"/>
    <trip id="334" depart="3178.00" from="62" to="-gneE6"/>
    <trip id="335" depart="3183.00" from="36" to="62"/>
    <trip id="336" depart="3187.00" from="50" to="58"/>
    <trip id="337" depart="3194.00" from="29" to="27"/>
    <trip id="338" depart="3195.00" from="12" to="14"/>
    <trip id="339" depart="3197.00" from="58" to="13"/>
    <trip id="340" depart="3198.00" from="6" to="22"/>
    <trip id="341" depart="3201.00" from="5" to="62"/>
    <trip id="342" depart="3210.00" from="17" to="45"/>
    <trip id="343" depart="3237.00" from="66" to="22"/>
    <trip id="344" depart="3257.00" from="19" to="7"/>
    <trip id="345" depart="3264.00" from="49" to="28"/>
    <trip id="346" depart="3271.00" from="43" to="16"/>
    <trip id="347" depart="3272.00" from="gneE6" to="60"/>
    <trip id="348" depart="3287.00" from="-gneE6" to="27"/>
    <trip id="349" depart="3293.00" from="21" to="57"/>
    <trip id="350" depart="3315.00" from="55" to="13"/>
    <trip id="351" depart="3319.00" from="10" to="14"/>
    <trip id="352" depart="3342.00" from="6" to="10"/>
    <trip id="353" depart="3360.00" from="16" to="40"/>
    <trip id="354" depart="3375.00" from="41" to="13"/>
    <trip id="355" depart="3380.00" from="16" to="64"/>
    <trip id="356" depart="3382.00" from="39" to="36"/>
    <trip id="357" depart="3387.00" from="40" to="57"/>
    <trip id="358" depart="3394.00" from="43" to="gneE6"/>
    <trip id="359" depart="3403.00" from="68" to="57"/>
    <trip id="360" depart="3415.00" from="64" to="53"/>
    <trip id="361" depart="3424.00" from="21" to="45"/>
    <trip id="362" depart="3433.00" from="30" to="57"/>
    <trip id="363" depart="3444.00" from="29" to="13"/>
    <trip id="364" depart="3476.00" from="43" to="22"/>
    <trip id="365" depart="3483.00" from="64" to="10"/>
    <trip id="366" depart="3483.00" from="6" to="17"/>
    <trip id="367" depart="3505.00" from="47" to="14"/>
    <trip id="368" depart="3507.00" from="5" to="40"/>
    <trip id="369" depart="3515.00" from="64" to="47"/>
    <trip id="370" depart="3518.00" from="12" to="6"/>
    <trip id="371" depart="3525.00" from="5" to="47"/>
    <trip id="372" depart="3526.00" from="17" to="39"/>
    <trip id="373" depart="3533.00" from="32" to="64"/>
    <trip id="374" depart="3533.00" from="19" to="6"/>
    <trip id="375" depart="3534.00" from="14" to="47"/>
    <trip id="376" depart="3538.00" from="46" to="60"/>
    <trip id="377" depart="3582.00" from="5" to="67"/>
    <trip id="378" depart="3584.00" from="30" to="32"/>
    <trip id="379" depart="3585.00" from="60" to="45"/>
</routes>
