<?xml version="1.0" encoding="UTF-8"?>
<!-- generated on 2019-05-18 20:24:21.006000 by $Id$
  options: -n net-1net.net.xml -b 1 -e 101 -p .20000000000000000000 -r output-net-1net/./rou500.rou.xml
-->
<routes xmlns:xsi="http://www.w3.org/2001/XMLSchema-instance" xsi:noNamespaceSchemaLocation="http://sumo.dlr.de/xsd/routes_file.xsd">
    <trip id="0" depart="1.00" from="12" to="10"/>
    <trip id="1" depart="1.20" from="57" to="27"/>
    <trip id="2" depart="1.40" from="19" to="12"/>
    <trip id="3" depart="1.60" from="50" to="40"/>
    <trip id="4" depart="1.80" from="71" to="57"/>
    <trip id="5" depart="2.00" from="43" to="62"/>
    <trip id="6" depart="2.20" from="66" to="10"/>
    <trip id="7" depart="2.40" from="20" to="28"/>
    <trip id="8" depart="2.60" from="28" to="64"/>
    <trip id="9" depart="2.80" from="-gneE6" to="19"/>
    <trip id="10" depart="3.00" from="36" to="30"/>
    <trip id="11" depart="3.20" from="52" to="16"/>
    <trip id="12" depart="3.40" from="53" to="13"/>
    <trip id="13" depart="3.60" from="58" to="30"/>
    <trip id="14" depart="3.80" from="36" to="40"/>
    <trip id="15" depart="4.00" from="63" to="60"/>
    <trip id="16" depart="4.20" from="gneE6" to="53"/>
    <trip id="17" depart="4.40" from="67" to="51"/>
    <trip id="18" depart="4.60" from="4" to="47"/>
    <trip id="19" depart="4.80" from="36" to="64"/>
    <trip id="20" depart="5.00" from="27" to="41"/>
    <trip id="21" depart="5.20" from="53" to="10"/>
    <trip id="22" depart="5.40" from="50" to="39"/>
    <trip id="23" depart="5.60" from="52" to="58"/>
    <trip id="24" depart="5.80" from="43" to="13"/>
    <trip id="25" depart="6.00" from="46" to="gneE6"/>
    <trip id="26" depart="6.20" from="34" to="22"/>
    <trip id="27" depart="6.40" from="50" to="21"/>
    <trip id="28" depart="6.60" from="40" to="28"/>
    <trip id="29" depart="6.80" from="37" to="28"/>
    <trip id="30" depart="7.00" from="40" to="40"/>
    <trip id="31" depart="7.20" from="19" to="48"/>
    <trip id="32" depart="7.40" from="58" to="50"/>
    <trip id="33" depart="7.60" from="49" to="41"/>
    <trip id="34" depart="7.80" from="47" to="51"/>
    <trip id="35" depart="8.00" from="36" to="39"/>
    <trip id="36" depart="8.20" from="47" to="51"/>
    <trip id="37" depart="8.40" from="53" to="60"/>
    <trip id="38" depart="8.60" from="50" to="30"/>
    <trip id="39" depart="8.80" from="14" to="71"/>
    <trip id="40" depart="9.00" from="23" to="37"/>
    <trip id="41" depart="9.20" from="20" to="30"/>
    <trip id="42" depart="9.40" from="19" to="19"/>
    <trip id="43" depart="9.60" from="43" to="10"/>
    <trip id="44" depart="9.80" from="4" to="20"/>
    <trip id="45" depart="10.00" from="gneE6" to="23"/>
    <trip id="46" depart="10.20" from="49" to="23"/>
    <trip id="47" depart="10.40" from="22" to="13"/>
    <trip id="48" depart="10.60" from="30" to="30"/>
    <trip id="49" depart="10.80" from="10" to="14"/>
    <trip id="50" depart="11.00" from="46" to="57"/>
    <trip id="51" depart="11.20" from="10" to="64"/>
    <trip id="52" depart="11.40" from="60" to="58"/>
    <trip id="53" depart="11.60" from="4" to="19"/>
    <trip id="54" depart="11.80" from="36" to="32"/>
    <trip id="55" depart="12.00" from="5" to="12"/>
    <trip id="56" depart="12.20" from="5" to="41"/>
    <trip id="57" depart="12.40" from="7" to="22"/>
    <trip id="58" depart="12.60" from="20" to="19"/>
    <trip id="59" depart="12.80" from="32" to="30"/>
    <trip id="60" depart="13.00" from="34" to="6"/>
    <trip id="61" depart="13.20" from="-gneE6" to="53"/>
    <trip id="62" depart="13.40" from="17" to="43"/>
    <trip id="63" depart="13.60" from="66" to="28"/>
    <trip id="64" depart="13.80" from="68" to="62"/>
    <trip id="65" depart="14.00" from="23" to="51"/>
    <trip id="66" depart="14.20" from="63" to="4"/>
    <trip id="67" depart="14.40" from="62" to="34"/>
    <trip id="68" depart="14.60" from="6" to="63"/>
    <trip id="69" depart="14.80" from="64" to="63"/>
    <trip id="70" depart="15.00" from="21" to="-gneE6"/>
    <trip id="71" depart="15.20" from="57" to="40"/>
    <trip id="72" depart="15.40" from="40" to="71"/>
    <trip id="73" depart="15.60" from="23" to="51"/>
    <trip id="74" depart="15.80" from="49" to="34"/>
    <trip id="75" depart="16.00" from="27" to="14"/>
    <trip id="76" depart="16.20" from="51" to="3"/>
    <trip id="77" depart="16.40" from="6" to="28"/>
    <trip id="78" depart="16.60" from="57" to="39"/>
    <trip id="79" depart="16.80" from="51" to="-gneE6"/>
    <trip id="80" depart="17.00" from="22" to="37"/>
    <trip id="81" depart="17.20" from="16" to="14"/>
    <trip id="82" depart="17.40" from="63" to="40"/>
    <trip id="83" depart="17.60" from="48" to="21"/>
    <trip id="84" depart="17.80" from="43" to="22"/>
    <trip id="85" depart="18.00" from="43" to="64"/>
    <trip id="86" depart="18.20" from="22" to="63"/>
    <trip id="87" depart="18.40" from="52" to="5"/>
    <trip id="88" depart="18.60" from="39" to="4"/>
    <trip id="89" depart="18.80" from="58" to="64"/>
    <trip id="90" depart="19.00" from="63" to="39"/>
    <trip id="91" depart="19.20" from="13" to="gneE6"/>
    <trip id="92" depart="19.40" from="37" to="52"/>
    <trip id="93" depart="19.60" from="60" to="64"/>
    <trip id="94" depart="19.80" from="14" to="22"/>
    <trip id="95" depart="20.00" from="20" to="21"/>
    <trip id="96" depart="20.20" from="46" to="16"/>
    <trip id="97" depart="20.40" from="53" to="27"/>
    <trip id="98" depart="20.60" from="66" to="51"/>
    <trip id="99" depart="20.80" from="50" to="7"/>
    <trip id="100" depart="21.00" from="27" to="41"/>
    <trip id="101" depart="21.20" from="62" to="37"/>
    <trip id="102" depart="21.40" from="40" to="28"/>
    <trip id="103" depart="21.60" from="55" to="-gneE6"/>
    <trip id="104" depart="21.80" from="66" to="66"/>
    <trip id="105" depart="22.00" from="19" to="46"/>
    <trip id="106" depart="22.20" from="67" to="28"/>
    <trip id="107" depart="22.40" from="13" to="52"/>
    <trip id="108" depart="22.60" from="29" to="14"/>
    <trip id="109" depart="22.80" from="67" to="14"/>
    <trip id="110" depart="23.00" from="gneE6" to="37"/>
    <trip id="111" depart="23.20" from="5" to="68"/>
    <trip id="112" depart="23.40" from="12" to="46"/>
    <trip id="113" depart="23.60" from="37" to="16"/>
    <trip id="114" depart="23.80" from="29" to="49"/>
    <trip id="115" depart="24.00" from="41" to="6"/>
    <trip id="116" depart="24.20" from="5" to="34"/>
    <trip id="117" depart="24.40" from="40" to="52"/>
    <trip id="118" depart="24.60" from="43" to="48"/>
    <trip id="119" depart="24.80" from="20" to="34"/>
    <trip id="120" depart="25.00" from="17" to="5"/>
    <trip id="121" depart="25.20" from="5" to="51"/>
    <trip id="122" depart="25.40" from="6" to="46"/>
    <trip id="123" depart="25.60" from="32" to="39"/>
    <trip id="124" depart="25.80" from="53" to="4"/>
    <trip id="125" depart="26.00" from="34" to="66"/>
    <trip id="126" depart="26.20" from="23" to="3"/>
    <trip id="127" depart="26.40" from="66" to="19"/>
    <trip id="128" depart="26.60" from="28" to="53"/>
    <trip id="129" depart="26.80" from="10" to="19"/>
    <trip id="130" depart="27.00" from="17" to="55"/>
    <trip id="131" depart="27.20" from="36" to="4"/>
    <trip id="132" depart="27.40" from="64" to="3"/>
    <trip id="133" depart="27.60" from="23" to="58"/>
    <trip id="134" depart="27.80" from="55" to="55"/>
    <trip id="135" depart="28.00" from="52" to="13"/>
    <trip id="136" depart="28.20" from="41" to="39"/>
    <trip id="137" depart="28.40" from="17" to="6"/>
    <trip id="138" depart="28.60" from="40" to="27"/>
    <trip id="139" depart="28.80" from="32" to="62"/>
    <trip id="140" depart="29.00" from="5" to="5"/>
    <trip id="141" depart="29.20" from="28" to="50"/>
    <trip id="142" depart="29.40" from="gneE6" to="30"/>
    <trip id="143" depart="29.60" from="3" to="20"/>
    <trip id="144" depart="29.80" from="45" to="63"/>
    <trip id="145" depart="30.00" from="gneE6" to="3"/>
    <trip id="146" depart="30.20" from="23" to="63"/>
    <trip id="147" depart="30.40" from="67" to="30"/>
    <trip id="148" depart="30.60" from="40" to="52"/>
    <trip id="149" depart="30.80" from="64" to="4"/>
    <trip id="150" depart="31.00" from="48" to="12"/>
    <trip id="151" depart="31.20" from="51" to="68"/>
    <trip id="152" depart="31.40" from="4" to="16"/>
    <trip id="153" depart="31.60" from="-gneE6" to="58"/>
    <trip id="154" depart="31.80" from="52" to="13"/>
    <trip id="155" depart="32.00" from="66" to="48"/>
    <trip id="156" depart="32.20" from="30" to="48"/>
    <trip id="157" depart="32.40" from="21" to="gneE6"/>
    <trip id="158" depart="32.60" from="32" to="32"/>
    <trip id="159" depart="32.80" from="17" to="19"/>
    <trip id="160" depart="33.00" from="37" to="41"/>
    <trip id="161" depart="33.20" from="gneE6" to="10"/>
    <trip id="162" depart="33.40" from="57" to="29"/>
    <trip id="163" depart="33.60" from="6" to="45"/>
    <trip id="164" depart="33.80" from="12" to="22"/>
    <trip id="165" depart="34.00" from="gneE6" to="62"/>
    <trip id="166" depart="34.20" from="-gneE6" to="58"/>
    <trip id="167" depart="34.40" from="21" to="3"/>
    <trip id="168" depart="34.60" from="71" to="41"/>
    <trip id="169" depart="34.80" from="47" to="45"/>
    <trip id="170" depart="35.00" from="39" to="68"/>
    <trip id="171" depart="35.20" from="55" to="37"/>
    <trip id="172" depart="35.40" from="53" to="32"/>
    <trip id="173" depart="35.60" from="29" to="66"/>
    <trip id="174" depart="35.80" from="63" to="43"/>
    <trip id="175" depart="36.00" from="51" to="68"/>
    <trip id="176" depart="36.20" from="-gneE6" to="48"/>
    <trip id="177" depart="36.40" from="21" to="58"/>
    <trip id="178" depart="36.60" from="51" to="-gneE6"/>
    <trip id="179" depart="36.80" from="28" to="39"/>
    <trip id="180" depart="37.00" from="21" to="50"/>
    <trip id="181" depart="37.20" from="32" to="62"/>
    <trip id="182" depart="37.40" from="48" to="22"/>
    <trip id="183" depart="37.60" from="51" to="34"/>
    <trip id="184" depart="37.80" from="3" to="3"/>
    <trip id="185" depart="38.00" from="4" to="22"/>
    <trip id="186" depart="38.20" from="68" to="60"/>
    <trip id="187" depart="38.40" from="27" to="22"/>
    <trip id="188" depart="38.60" from="7" to="30"/>
    <trip id="189" depart="38.80" from="6" to="14"/>
    <trip id="190" depart="39.00" from="52" to="36"/>
    <trip id="191" depart="39.20" from="21" to="58"/>
    <trip id="192" depart="39.40" from="67" to="46"/>
    <trip id="193" depart="39.60" from="47" to="58"/>
    <trip id="194" depart="39.80" from="10" to="49"/>
    <trip id="195" depart="40.00" from="55" to="20"/>
    <trip id="196" depart="40.20" from="4" to="62"/>
    <trip id="197" depart="40.40" from="60" to="49"/>
    <trip id="198" depart="40.60" from="62" to="16"/>
    <trip id="199" depart="40.80" from="40" to="13"/>
    <trip id="200" depart="41.00" from="17" to="10"/>
    <trip id="201" depart="41.20" from="37" to="51"/>
    <trip id="202" depart="41.40" from="-gneE6" to="14"/>
    <trip id="203" depart="41.60" from="34" to="46"/>
    <trip id="204" depart="41.80" from="27" to="52"/>
    <trip id="205" depart="42.00" from="3" to="22"/>
    <trip id="206" depart="42.20" from="7" to="41"/>
    <trip id="207" depart="42.40" from="19" to="19"/>
    <trip id="208" depart="42.60" from="5" to="58"/>
    <trip id="209" depart="42.80" from="68" to="-gneE6"/>
    <trip id="210" depart="43.00" from="48" to="51"/>
    <trip id="211" depart="43.20" from="57" to="37"/>
    <trip id="212" depart="43.40" from="12" to="40"/>
    <trip id="213" depart="43.60" from="22" to="50"/>
    <trip id="214" depart="43.80" from="57" to="46"/>
    <trip id="215" depart="44.00" from="5" to="40"/>
    <trip id="216" depart="44.20" from="52" to="66"/>
    <trip id="217" depart="44.40" from="45" to="4"/>
    <trip id="218" depart="44.60" from="4" to="40"/>
    <trip id="219" depart="44.80" from="4" to="48"/>
    <trip id="220" depart="45.00" from="66" to="22"/>
    <trip id="221" depart="45.20" from="17" to="45"/>
    <trip id="222" depart="45.40" from="46" to="58"/>
    <trip id="223" depart="45.60" from="21" to="17"/>
    <trip id="224" depart="45.80" from="43" to="32"/>
    <trip id="225" depart="46.00" from="60" to="3"/>
    <trip id="226" depart="46.20" from="32" to="29"/>
    <trip id="227" depart="46.40" from="37" to="13"/>
    <trip id="228" depart="46.60" from="62" to="14"/>
    <trip id="229" depart="46.80" from="68" to="22"/>
    <trip id="230" depart="47.00" from="37" to="3"/>
    <trip id="231" depart="47.20" from="49" to="32"/>
    <trip id="232" depart="47.40" from="39" to="53"/>
    <trip id="233" depart="47.60" from="68" to="53"/>
    <trip id="234" depart="47.80" from="21" to="7"/>
    <trip id="235" depart="48.00" from="62" to="48"/>
    <trip id="236" depart="48.20" from="57" to="22"/>
    <trip id="237" depart="48.40" from="58" to="45"/>
    <trip id="238" depart="48.60" from="51" to="63"/>
    <trip id="239" depart="48.80" from="57" to="30"/>
    <trip id="240" depart="49.00" from="63" to="12"/>
    <trip id="241" depart="49.20" from="10" to="46"/>
    <trip id="242" depart="49.40" from="13" to="66"/>
    <trip id="243" depart="49.60" from="23" to="53"/>
    <trip id="244" depart="49.80" from="40" to="45"/>
    <trip id="245" depart="50.00" from="4" to="32"/>
    <trip id="246" depart="50.20" from="50" to="48"/>
    <trip id="247" depart="50.40" from="62" to="50"/>
    <trip id="248" depart="50.60" from="16" to="gneE6"/>
    <trip id="249" depart="50.80" from="10" to="16"/>
    <trip id="250" depart="51.00" from="34" to="40"/>
    <trip id="251" depart="51.20" from="68" to="51"/>
    <trip id="252" depart="51.40" from="22" to="57"/>
    <trip id="253" depart="51.60" from="48" to="47"/>
    <trip id="254" depart="51.80" from="29" to="41"/>
    <trip id="255" depart="52.00" from="58" to="63"/>
    <trip id="256" depart="52.20" from="47" to="30"/>
    <trip id="257" depart="52.40" from="20" to="67"/>
    <trip id="258" depart="52.60" from="23" to="16"/>
    <trip id="259" depart="52.80" from="21" to="62"/>
    <trip id="260" depart="53.00" from="37" to="58"/>
    <trip id="261" depart="53.20" from="23" to="23"/>
    <trip id="262" depart="53.40" from="29" to="gneE6"/>
    <trip id="263" depart="53.60" from="28" to="12"/>
    <trip id="264" depart="53.80" from="21" to="55"/>
    <trip id="265" depart="54.00" from="50" to="67"/>
    <trip id="266" depart="54.20" from="43" to="68"/>
    <trip id="267" depart="54.40" from="41" to="39"/>
    <trip id="268" depart="54.60" from="4" to="41"/>
    <trip id="269" depart="54.80" from="39" to="55"/>
    <trip id="270" depart="55.00" from="45" to="41"/>
    <trip id="271" depart="55.20" from="23" to="57"/>
    <trip id="272" depart="55.40" from="53" to="17"/>
    <trip id="273" depart="55.60" from="27" to="57"/>
    <trip id="274" depart="55.80" from="21" to="62"/>
    <trip id="275" depart="56.00" from="66" to="39"/>
    <trip id="276" depart="56.20" from="21" to="4"/>
    <trip id="277" depart="56.40" from="49" to="55"/>
    <trip id="278" depart="56.60" from="27" to="7"/>
    <trip id="279" depart="56.80" from="48" to="22"/>
    <trip id="280" depart="57.00" from="22" to="39"/>
    <trip id="281" depart="57.20" from="55" to="67"/>
    <trip id="282" depart="57.40" from="48" to="28"/>
    <trip id="283" depart="57.60" from="5" to="58"/>
    <trip id="284" depart="57.80" from="46" to="17"/>
    <trip id="285" depart="58.00" from="14" to="52"/>
    <trip id="286" depart="58.20" from="30" to="19"/>
    <trip id="287" depart="58.40" from="60" to="39"/>
    <trip id="288" depart="58.60" from="14" to="63"/>
    <trip id="289" depart="58.80" from="12" to="28"/>
    <trip id="290" depart="59.00" from="-gneE6" to="45"/>
    <trip id="291" depart="59.20" from="14" to="41"/>
    <trip id="292" depart="59.40" from="13" to="64"/>
    <trip id="293" depart="59.60" from="51" to="37"/>
    <trip id="294" depart="59.80" from="14" to="71"/>
    <trip id="295" depart="60.00" from="13" to="27"/>
    <trip id="296" depart="60.20" from="51" to="17"/>
    <trip id="297" depart="60.40" from="23" to="62"/>
    <trip id="298" depart="60.60" from="14" to="57"/>
    <trip id="299" depart="60.80" from="12" to="58"/>
    <trip id="300" depart="61.00" from="14" to="29"/>
    <trip id="301" depart="61.20" from="32" to="63"/>
    <trip id="302" depart="61.40" from="52" to="47"/>
    <trip id="303" depart="61.60" from="64" to="13"/>
    <trip id="304" depart="61.80" from="41" to="41"/>
    <trip id="305" depart="62.00" from="67" to="22"/>
    <trip id="306" depart="62.20" from="58" to="49"/>
    <trip id="307" depart="62.40" from="41" to="43"/>
    <trip id="308" depart="62.60" from="12" to="23"/>
    <trip id="309" depart="62.80" from="41" to="63"/>
    <trip id="310" depart="63.00" from="58" to="6"/>
    <trip id="311" depart="63.20" from="71" to="58"/>
    <trip id="312" depart="63.40" from="41" to="58"/>
    <trip id="313" depart="63.60" from="58" to="13"/>
    <trip id="314" depart="63.80" from="4" to="64"/>
    <trip id="315" depart="64.00" from="12" to="57"/>
    <trip id="316" depart="64.20" from="28" to="6"/>
    <trip id="317" depart="64.40" from="53" to="40"/>
    <trip id="318" depart="64.60" from="64" to="4"/>
    <trip id="319" depart="64.80" from="57" to="51"/>
    <trip id="320" depart="65.00" from="3" to="40"/>
    <trip id="321" depart="65.20" from="22" to="60"/>
    <trip id="322" depart="65.40" from="48" to="68"/>
    <trip id="323" depart="65.60" from="23" to="58"/>
    <trip id="324" depart="65.80" from="28" to="19"/>
    <trip id="325" depart="66.00" from="39" to="47"/>
    <trip id="326" depart="66.20" from="29" to="40"/>
    <trip id="327" depart="66.40" from="71" to="52"/>
    <trip id="328" depart="66.60" from="7" to="21"/>
    <trip id="329" depart="66.80" from="43" to="66"/>
    <trip id="330" depart="67.00" from="21" to="28"/>
    <trip id="331" depart="67.20" from="14" to="55"/>
    <trip id="332" depart="67.40" from="47" to="37"/>
    <trip id="333" depart="67.60" from="40" to="39"/>
    <trip id="334" depart="67.80" from="21" to="43"/>
    <trip id="335" depart="68.00" from="gneE6" to="30"/>
    <trip id="336" depart="68.20" from="40" to="45"/>
    <trip id="337" depart="68.40" from="37" to="50"/>
    <trip id="338" depart="68.60" from="36" to="39"/>
    <trip id="339" depart="68.80" from="20" to="60"/>
    <trip id="340" depart="69.00" from="23" to="36"/>
    <trip id="341" depart="69.20" from="66" to="62"/>
    <trip id="342" depart="69.40" from="7" to="7"/>
    <trip id="343" depart="69.60" from="51" to="16"/>
    <trip id="344" depart="69.80" from="41" to="5"/>
    <trip id="345" depart="70.00" from="32" to="60"/>
    <trip id="346" depart="70.20" from="3" to="63"/>
    <trip id="347" depart="70.40" from="4" to="7"/>
    <trip id="348" depart="70.60" from="3" to="21"/>
    <trip id="349" depart="70.80" from="16" to="71"/>
    <trip id="350" depart="71.00" from="40" to="67"/>
    <trip id="351" depart="71.20" from="20" to="7"/>
    <trip id="352" depart="71.40" from="6" to="62"/>
    <trip id="353" depart="71.60" from="67" to="7"/>
    <trip id="354" depart="71.80" from="52" to="50"/>
    <trip id="355" depart="72.00" from="6" to="32"/>
    <trip id="356" depart="72.20" from="68" to="22"/>
    <trip id="357" depart="72.40" from="6" to="62"/>
    <trip id="358" depart="72.60" from="34" to="21"/>
    <trip id="359" depart="72.80" from="22" to="39"/>
    <trip id="360" depart="73.00" from="3" to="21"/>
    <trip id="361" depart="73.20" from="64" to="gneE6"/>
    <trip id="362" depart="73.40" from="64" to="37"/>
    <trip id="363" depart="73.60" from="53" to="16"/>
    <trip id="364" depart="73.80" from="13" to="5"/>
    <trip id="365" depart="74.00" from="20" to="67"/>
    <trip id="366" depart="74.20" from="32" to="12"/>
    <trip id="367" depart="74.40" from="58" to="14"/>
    <trip id="368" depart="74.60" from="22" to="57"/>
    <trip id="369" depart="74.80" from="20" to="46"/>
    <trip id="370" depart="75.00" from="40" to="13"/>
    <trip id="371" depart="75.20" from="62" to="21"/>
    <trip id="372" depart="75.40" from="49" to="21"/>
    <trip id="373" depart="75.60" from="62" to="55"/>
    <trip id="374" depart="75.80" from="46" to="64"/>
    <trip id="375" depart="76.00" from="46" to="68"/>
    <trip id="376" depart="76.20" from="46" to="27"/>
    <trip id="377" depart="76.40" from="39" to="67"/>
    <trip id="378" depart="76.60" from="28" to="40"/>
    <trip id="379" depart="76.80" from="19" to="28"/>
    <trip id="380" depart="77.00" from="17" to="53"/>
    <trip id="381" depart="77.20" from="17" to="30"/>
    <trip id="382" depart="77.40" from="62" to="52"/>
    <trip id="383" depart="77.60" from="51" to="51"/>
    <trip id="384" depart="77.80" from="17" to="12"/>
    <trip id="385" depart="78.00" from="3" to="48"/>
    <trip id="386" depart="78.20" from="12" to="55"/>
    <trip id="387" depart="78.40" from="66" to="14"/>
    <trip id="388" depart="78.60" from="7" to="23"/>
    <trip id="389" depart="78.80" from="55" to="49"/>
    <trip id="390" depart="79.00" from="40" to="16"/>
    <trip id="391" depart="79.20" from="62" to="3"/>
    <trip id="392" depart="79.40" from="16" to="47"/>
    <trip id="393" depart="79.60" from="55" to="64"/>
    <trip id="394" depart="79.80" from="34" to="19"/>
    <trip id="395" depart="80.00" from="60" to="64"/>
    <trip id="396" depart="80.20" from="29" to="55"/>
    <trip id="397" depart="80.40" from="32" to="49"/>
    <trip id="398" depart="80.60" from="6" to="19"/>
    <trip id="399" depart="80.80" from="21" to="3"/>
    <trip id="400" depart="81.00" from="64" to="36"/>
    <trip id="401" depart="81.20" from="57" to="7"/>
    <trip id="402" depart="81.40" from="29" to="22"/>
    <trip id="403" depart="81.60" from="10" to="17"/>
    <trip id="404" depart="81.80" from="14" to="47"/>
    <trip id="405" depart="82.00" from="10" to="32"/>
    <trip id="406" depart="82.20" from="-gneE6" to="27"/>
    <trip id="407" depart="82.40" from="41" to="17"/>
    <trip id="408" depart="82.60" from="37" to="62"/>
    <trip id="409" depart="82.80" from="47" to="48"/>
    <trip id="410" depart="83.00" from="52" to="50"/>
    <trip id="411" depart="83.20" from="20" to="3"/>
    <trip id="412" depart="83.40" from="63" to="7"/>
    <trip id="413" depart="83.60" from="14" to="52"/>
    <trip id="414" depart="83.80" from="63" to="16"/>
    <trip id="415" depart="84.00" from="60" to="48"/>
    <trip id="416" depart="84.20" from="7" to="12"/>
    <trip id="417" depart="84.40" from="50" to="3"/>
    <trip id="418" depart="84.60" from="36" to="39"/>
    <trip id="419" depart="84.80" from="39" to="6"/>
    <trip id="420" depart="85.00" from="49" to="63"/>
    <trip id="421" depart="85.20" from="30" to="10"/>
    <trip id="422" depart="85.40" from="3" to="30"/>
    <trip id="423" depart="85.60" from="57" to="55"/>
    <trip id="424" depart="85.80" from="gneE6" to="4"/>
    <trip id="425" depart="86.00" from="34" to="12"/>
    <trip id="426" depart="86.20" from="28" to="40"/>
    <trip id="427" depart="86.40" from="45" to="66"/>
    <trip id="428" depart="86.60" from="43" to="22"/>
    <trip id="429" depart="86.80" from="48" to="63"/>
    <trip id="430" depart="87.00" from="5" to="58"/>
    <trip id="431" depart="87.20" from="41" to="58"/>
    <trip id="432" depart="87.40" from="27" to="16"/>
    <trip id="433" depart="87.60" from="19" to="63"/>
    <trip id="434" depart="87.80" from="49" to="45"/>
    <trip id="435" depart="88.00" from="28" to="28"/>
    <trip id="436" depart="88.20" from="32" to="20"/>
    <trip id="437" depart="88.40" from="62" to="27"/>
    <trip id="438" depart="88.60" from="45" to="32"/>
    <trip id="439" depart="88.80" from="19" to="13"/>
    <trip id="440" depart="89.00" from="12" to="48"/>
    <trip id="441" depart="89.20" from="43" to="37"/>
    <trip id="442" depart="89.40" from="39" to="66"/>
    <trip id="443" depart="89.60" from="58" to="34"/>
    <trip id="444" depart="89.80" from="34" to="4"/>
    <trip id="445" depart="90.00" from="5" to="5"/>
    <trip id="446" depart="90.20" from="51" to="37"/>
    <trip id="447" depart="90.40" from="10" to="48"/>
    <trip id="448" depart="90.60" from="63" to="17"/>
    <trip id="449" depart="90.80" from="40" to="51"/>
    <trip id="450" depart="91.00" from="6" to="4"/>
    <trip id="451" depart="91.20" from="gneE6" to="50"/>
    <trip id="452" depart="91.40" from="19" to="57"/>
    <trip id="453" depart="91.60" from="39" to="37"/>
    <trip id="454" depart="91.80" from="30" to="37"/>
    <trip id="455" depart="92.00" from="34" to="5"/>
    <trip id="456" depart="92.20" from="41" to="41"/>
    <trip id="457" depart="92.40" from="57" to="52"/>
    <trip id="458" depart="92.60" from="49" to="5"/>
    <trip id="459" depart="92.80" from="53" to="71"/>
    <trip id="460" depart="93.00" from="50" to="6"/>
    <trip id="461" depart="93.20" from="36" to="57"/>
    <trip id="462" depart="93.40" from="50" to="52"/>
    <trip id="463" depart="93.60" from="55" to="67"/>
    <trip id="464" depart="93.80" from="5" to="28"/>
    <trip id="465" depart="94.00" from="41" to="12"/>
    <trip id="466" depart="94.20" from="27" to="46"/>
    <trip id="467" depart="94.40" from="20" to="46"/>
    <trip id="468" depart="94.60" from="21" to="12"/>
    <trip id="469" depart="94.80" from="47" to="47"/>
    <trip id="470" depart="95.00" from="60" to="46"/>
    <trip id="471" depart="95.20" from="36" to="53"/>
    <trip id="472" depart="95.40" from="50" to="52"/>
    <trip id="473" depart="95.60" from="48" to="30"/>
    <trip id="474" depart="95.80" from="50" to="47"/>
    <trip id="475" depart="96.00" from="51" to="12"/>
    <trip id="476" depart="96.20" from="28" to="63"/>
    <trip id="477" depart="96.40" from="63" to="62"/>
    <trip id="478" depart="96.60" from="51" to="17"/>
    <trip id="479" depart="96.80" from="57" to="66"/>
    <trip id="480" depart="97.00" from="5" to="49"/>
    <trip id="481" depart="97.20" from="37" to="51"/>
    <trip id="482" depart="97.40" from="49" to="12"/>
    <trip id="483" depart="97.60" from="17" to="43"/>
    <trip id="484" depart="97.80" from="46" to="22"/>
    <trip id="485" depart="98.00" from="27" to="5"/>
    <trip id="486" depart="98.20" from="10" to="37"/>
    <trip id="487" depart="98.40" from="17" to="68"/>
    <trip id="488" depart="98.60" from="63" to="19"/>
    <trip id="489" depart="98.80" from="7" to="19"/>
    <trip id="490" depart="99.00" from="40" to="55"/>
    <trip id="491" depart="99.20" from="23" to="67"/>
    <trip id="492" depart="99.40" from="71" to="13"/>
    <trip id="493" depart="99.60" from="51" to="60"/>
    <trip id="494" depart="99.80" from="63" to="63"/>
    <trip id="495" depart="100.00" from="39" to="45"/>
    <trip id="496" depart="100.20" from="21" to="45"/>
    <trip id="497" depart="100.40" from="41" to="45"/>
    <trip id="498" depart="100.60" from="51" to="3"/>
    <trip id="499" depart="100.80" from="45" to="43"/>
</routes>
