<?xml version="1.0" encoding="UTF-8"?>

<!-- generated on 05/10/19 21:27:07 by Eclipse SUMO duarouter Version 1.1.0
<configuration xmlns:xsi="http://www.w3.org/2001/XMLSchema-instance" xsi:noNamespaceSchemaLocation="http://sumo.dlr.de/xsd/duarouterConfiguration.xsd">

    <input>
        <net-file value="net.net.xml"/>
        <route-files value="trips.trips.xml"/>
    </input>

    <output>
        <output-file value="out-10-10/./rou100.rou.xml"/>
        <alternatives-output value="out-10-10/./rou100.rou.alt.xml"/>
    </output>

    <time>
        <begin value="1.0"/>
        <end value="101.0"/>
    </time>

    <report>
        <no-warnings value="true"/>
        <ignore-errors value="true"/>
        <no-step-log value="true"/>
    </report>

</configuration>
-->

<routes xmlns:xsi="http://www.w3.org/2001/XMLSchema-instance" xsi:noNamespaceSchemaLocation="http://sumo.dlr.de/xsd/routes_file.xsd">
    <vehicle id="0" depart="1.00">
        <route edges="G5H5 H5G5 G5F5 F5E5 E5D5 D5C5 C5C6 C6C7 C7C8"/>
    </vehicle>
    <vehicle id="1" depart="2.00">
        <route edges="K10J10 J10I10 I10H10 H10G10 G10F10 F10E10 E10D10 D10C10 C10B10 B10B9 B9B8 B8B7 B7B6 B6C6 C6D6 D6E6 E6F6 F6G6 G6G7"/>
    </vehicle>
    <vehicle id="2" depart="3.00">
        <route edges="B1B2 B2B1 B1B10 B10C10 C10D10 D10E10 E10F10 F10G10 G10F10"/>
    </vehicle>
    <vehicle id="3" depart="4.00">
        <route edges="I6I7 I7H7 H7H6 H6I6"/>
    </vehicle>
    <vehicle id="4" depart="5.00">
        <route edges="F5F6 F6E6 E6D6 D6C6 C6B6 B6B7 B7C7"/>
    </vehicle>
    <vehicle id="5" depart="6.00">
        <route edges="E4D4 D4C4 C4B4 B4B5 B5B6 B6B7 B7B8 B8B7"/>
    </vehicle>
    <vehicle id="6" depart="7.00">
        <route edges="F3F4 F4E4 E4D4 D4D3"/>
    </vehicle>
    <vehicle id="7" depart="8.00">
        <route edges="K10J10 J10I10 I10H10 H10G10 G10F10 F10E10 E10D10 D10D9 D9D8 D8D9"/>
    </vehicle>
    <vehicle id="8" depart="9.00">
        <route edges="K6K7 K7J7"/>
    </vehicle>
    <vehicle id="9" depart="10.00">
        <route edges="G7H7 H7G7 G7F7 F7E7 E7D7 D7C7 C7B7 B7B6 B6B5 B5B4 B4B3 B3C3 C3D3 D3E3 E3F3"/>
    </vehicle>
    <vehicle id="10" depart="11.00">
        <route edges="B4B3 B3C3 C3D3 D3E3 E3F3 F3G3 G3H3 H3I3 I3J3 J3J4"/>
    </vehicle>
    <vehicle id="11" depart="12.00">
        <route edges="F4G4 G4G3 G3H3 H3I3 I3I4"/>
    </vehicle>
    <vehicle id="12" depart="13.00">
        <route edges="I5H5 H5G5 G5F5 F5E5 E5D5 D5D4 D4D3 D3D2 D2D1"/>
    </vehicle>
    <vehicle id="13" depart="14.00">
        <route edges="G5G4 G4F4 F4E4 E4D4 D4C4 C4B4 B4B3 B3B2 B2B1 B1B10 B10C10 C10D10 D10C10"/>
    </vehicle>
    <vehicle id="14" depart="15.00">
        <route edges="E2F2 F2F3 F3G3 G3H3 H3I3"/>
    </vehicle>
    <vehicle id="15" depart="16.00">
        <route edges="F7F8 F8G8 G8H8 H8H9"/>
    </vehicle>
    <vehicle id="16" depart="17.00">
        <route edges="C1C2 C2C3 C3C4 C4C5 C5C6 C6D6 D6E6 E6F6 F6G6 G6F6"/>
    </vehicle>
    <vehicle id="17" depart="18.00">
        <route edges="H7I7 I7H7 H7G7 G7G8 G8G9 G9F9"/>
    </vehicle>
    <vehicle id="18" depart="19.00">
        <route edges="J10J1 J1I1 I1H1 H1G1 G1F1 F1E1 E1D1 D1C1 C1B1 B1B2 B2B3 B3B4 B4B5 B5B6 B6C6 C6B6"/>
    </vehicle>
    <vehicle id="19" depart="20.00">
        <route edges="K5K4 K4J4 J4I4 I4H4 H4G4 G4F4 F4E4 E4D4 D4C4 C4C5 C5C6 C6C7 C7C8 C8D8 D8E8 E8F8 F8G8 G8H8 H8I8 I8J8 J8J7"/>
    </vehicle>
    <vehicle id="20" depart="21.00">
        <route edges="J4K4 K4J4 J4I4 I4H4 H4G4 G4F4 F4E4 E4D4 D4C4 C4C5 C5C6 C6C7 C7C8 C8D8 D8E8 E8F8 F8G8 G8H8 H8I8 I8J8 J8J7"/>
    </vehicle>
    <vehicle id="21" depart="22.00">
        <route edges="C2B2 B2B3 B3B4 B4C4 C4D4 D4C4"/>
    </vehicle>
    <vehicle id="22" depart="23.00">
        <route edges="E6F6 F6F5 F5G5 G5F5"/>
    </vehicle>
    <vehicle id="23" depart="24.00">
        <route edges="D2C2 C2C1 C1C10 C10D10 D10E10 E10E9"/>
    </vehicle>
    <vehicle id="24" depart="25.00">
        <route edges="G2H2 H2G2 G2F2 F2E2 E2D2 D2C2 C2B2 B2B1 B1B10 B10B9 B9B8"/>
    </vehicle>
    <vehicle id="25" depart="26.00">
        <route edges="D9C9 C9C10 C10C1 C1C2 C2D2 D2E2 E2F2 F2G2 G2H2 H2I2"/>
    </vehicle>
    <vehicle id="26" depart="27.00">
        <route edges="D9D8 D8C8 C8B8 B8B7 B7B6 B6B5 B5B4 B4C4 C4D4 D4E4 E4F4 F4G4 G4H4 H4I4 I4J4"/>
    </vehicle>
    <vehicle id="27" depart="28.00">
        <route edges="J6J7 J7I7 I7H7 H7G7 G7F7 F7E7 E7D7 D7C7 C7B7 B7B6 B6B5 B5B4 B4B3 B3C3 C3D3 D3E3 E3F3 F3G3"/>
    </vehicle>
    <vehicle id="28" depart="29.00">
        <route edges="B5C5 C5B5 B5B6 B6B7 B7B8 B8B9 B9B10 B10B9"/>
    </vehicle>
    <vehicle id="29" depart="30.00">
        <route edges="E10E1 E1E2 E2F2 F2G2 G2H2 H2I2 I2J2 J2I2"/>
    </vehicle>
    <vehicle id="30" depart="31.00">
        <route edges="H9H10 H10G10 G10F10 F10E10 E10D10 D10D9 D9D8 D8D7 D7D6"/>
    </vehicle>
    <vehicle id="31" depart="32.00">
        <route edges="G5F5 F5E5 E5D5 D5C5 C5C4 C4B4"/>
    </vehicle>
    <vehicle id="32" depart="33.00">
        <route edges="H8I8 I8H8 H8G8 G8F8 F8E8 E8D8 D8C8 C8B8 B8B9 B9B10 B10B1 B1B2 B2B3 B3B2"/>
    </vehicle>
    <vehicle id="33" depart="34.00">
        <route edges="I8I9 I9I8 I8I7"/>
    </vehicle>
    <vehicle id="34" depart="35.00">
        <route edges="I6J6 J6I6 I6H6 H6G6 G6F6 F6E6 E6D6 D6C6 C6C7 C7C8 C8C9 C9C10 C10D10 D10E10 E10F10 F10F1"/>
    </vehicle>
    <vehicle id="35" depart="36.00">
        <route edges="K1K10 K10J10 J10I10 I10H10 H10G10 G10F10 F10E10 E10D10 D10C10 C10B10 B10B1 B1B2 B2B3 B3B4 B4B5"/>
    </vehicle>
    <vehicle id="36" depart="37.00">
        <route edges="D4D3 D3D2 D2D1 D1D10 D10E10 E10F10 F10G10 G10H10"/>
    </vehicle>
    <vehicle id="37" depart="38.00">
        <route edges="D2C2 C2C1 C1C10 C10C9 C9D9 D9E9 E9F9 F9G9 G9H9 H9I9 I9I8"/>
    </vehicle>
    <vehicle id="38" depart="39.00">
        <route edges="G10G1 G1F1 F1E1 E1D1 D1D2"/>
    </vehicle>
    <vehicle id="39" depart="40.00">
        <route edges="E8E9 E9D9 D9C9 C9C10 C10C1 C1C2 C2C1"/>
    </vehicle>
    <vehicle id="40" depart="41.00">
        <route edges="I5H5 H5G5 G5F5 F5E5 E5D5 D5C5 C5C6 C6C7"/>
    </vehicle>
    <vehicle id="41" depart="42.00">
        <route edges="J5K5 K5J5 J5I5 I5H5 H5G5 G5F5 F5E5 E5D5 D5C5 C5C6 C6C7 C7C8 C8C9 C9D9 D9E9 E9D9"/>
    </vehicle>
    <vehicle id="42" depart="43.00">
        <route edges="B8B7 B7B6 B6C6 C6B6"/>
    </vehicle>
    <vehicle id="43" depart="44.00">
        <route edges="C7C6 C6C7 C7D7 D7E7 E7F7 F7G7 G7H7 H7I7 I7I6"/>
    </vehicle>
    <vehicle id="44" depart="45.00">
        <route edges="J10J9 J9I9 I9H9 H9G9 G9F9 F9E9 E9D9 D9D8 D8C8"/>
    </vehicle>
    <vehicle id="45" depart="46.00">
        <route edges="I9I8 I8H8 H8G8 G8F8 F8E8 E8D8 D8C8 C8B8 B8B9 B9B10 B10B1 B1B10"/>
    </vehicle>
    <vehicle id="46" depart="47.00">
        <route edges="E4F4 F4E4 E4D4 D4C4 C4C5 C5C6 C6C7 C7C8 C8D8 D8D9"/>
    </vehicle>
    <vehicle id="47" depart="48.00">
        <route edges="G9F9 F9E9 E9D9 D9C9 C9C10 C10C1 C1C2 C2C3 C3B3"/>
    </vehicle>
    <vehicle id="48" depart="49.00">
        <route edges="G10G9 G9G10 G10H10 H10I10 I10J10"/>
    </vehicle>
    <vehicle id="49" depart="50.00">
        <route edges="I2J2 J2J1 J1J10 J10J9 J9K9 K9K8"/>
    </vehicle>
    <vehicle id="50" depart="51.00">
        <route edges="C9B9 B9B10 B10B1 B1B2 B2C2 C2D2 D2E2 E2F2 F2G2 G2G3"/>
    </vehicle>
    <vehicle id="51" depart="52.00">
        <route edges="D9D10 D10D1 D1D2 D2D3 D3E3 E3F3 F3G3 G3H3 H3I3 I3H3"/>
    </vehicle>
    <vehicle id="52" depart="53.00">
        <route edges="B5B6 B6B5 B5B4 B4C4 C4D4 D4E4 E4F4 F4G4 G4H4 H4I4 I4J4 J4K4 K4K3"/>
    </vehicle>
    <vehicle id="53" depart="54.00">
        <route edges="J7J6 J6I6 I6H6 H6G6 G6F6 F6E6 E6D6 D6C6 C6B6 B6B5 B5B4 B4B3 B3B2 B2C2 C2D2 D2E2 E2F2 F2G2 G2H2 H2I2"/>
    </vehicle>
    <vehicle id="54" depart="55.00">
        <route edges="H3H2 H2I2 I2J2 J2K2 K2K3"/>
    </vehicle>
    <vehicle id="55" depart="56.00">
        <route edges="D7D8 D8D9 D9D10 D10D1 D1E1 E1F1 F1G1 G1H1 H1I1 I1J1 J1K1 K1K10"/>
    </vehicle>
    <vehicle id="56" depart="57.00">
        <route edges="G8G9 G9G10 G10G1 G1G2 G2H2 H2I2 I2J2 J2K2 K2K3"/>
    </vehicle>
    <vehicle id="57" depart="58.00">
        <route edges="J3J2 J2I2 I2H2 H2G2 G2F2 F2E2 E2D2 D2C2 C2C3 C3C4 C4C5 C5C6 C6B6"/>
    </vehicle>
    <vehicle id="58" depart="59.00">
        <route edges="I10I1 I1H1 H1H2 H2G2"/>
    </vehicle>
    <vehicle id="59" depart="60.00">
        <route edges="J1J2 J2I2 I2H2 H2H3"/>
    </vehicle>
    <vehicle id="60" depart="61.00">
        <route edges="D8C8 C8B8 B8B7 B7B6 B6B5 B5B4 B4B3"/>
    </vehicle>
    <vehicle id="61" depart="62.00">
        <route edges="K1K2 K2J2 J2I2 I2H2 H2H3 H3H4 H4G4"/>
    </vehicle>
    <vehicle id="62" depart="63.00">
        <route edges="E2E1 E1D1 D1C1 C1C2 C2C3 C3C4 C4C5 C5D5 D5E5 E5F5 F5G5 G5H5 H5I5 I5H5"/>
    </vehicle>
    <vehicle id="63" depart="64.00">
        <route edges="F2F1 F1F2 F2F3 F3F4 F4F5"/>
    </vehicle>
    <vehicle id="64" depart="65.00">
        <route edges="E8D8 D8C8 C8C9 C9C10 C10C1 C1C2 C2D2 D2E2 E2F2 F2G2 G2H2 H2I2 I2J2 J2I2"/>
    </vehicle>
    <vehicle id="65" depart="66.00">
        <route edges="F7F6 F6E6 E6D6 D6C6 C6B6 B6B7 B7B8"/>
    </vehicle>
    <vehicle id="66" depart="67.00">
        <route edges="G2F2 F2F3 F3F4 F4F5 F5G5 G5G4"/>
    </vehicle>
    <vehicle id="67" depart="68.00">
        <route edges="H1H2 H2G2 G2F2 F2E2 E2E3 E3E4 E4F4"/>
    </vehicle>
    <vehicle id="68" depart="69.00">
        <route edges="J2J3 J3I3 I3H3 H3G3 G3F3 F3E3 E3D3 D3D4 D4D5 D5D6 D6C6"/>
    </vehicle>
    <vehicle id="69" depart="70.00">
        <route edges="G2G3 G3F3 F3E3 E3D3 D3C3 C3C4 C4C5 C5C6 C6C7 C7D7 D7E7 E7F7 F7G7 G7F7"/>
    </vehicle>
    <vehicle id="70" depart="71.00">
        <route edges="G5F5 F5E5 E5D5 D5C5 C5B5 B5B4 B4B3 B3B2 B2B3"/>
    </vehicle>
    <vehicle id="71" depart="72.00">
        <route edges="G8G7 G7G6 G6G5 G5H5 H5I5 I5J5"/>
    </vehicle>
    <vehicle id="72" depart="73.00">
        <route edges="E5E4 E4E5 E5F5 F5G5 G5H5 H5I5 I5J5 J5I5"/>
    </vehicle>
    <vehicle id="73" depart="74.00">
        <route edges="I7I6 I6H6 H6G6 G6F6 F6E6 E6D6 D6C6 C6B6 B6B7 B7B8 B8B9 B9B10 B10B1 B1C1 C1D1 D1E1 E1F1 F1G1 G1H1 H1I1 I1J1 J1J2"/>
    </vehicle>
    <vehicle id="74" depart="75.00">
        <route edges="G2H2 H2G2 G2G3 G3G4 G4G5 G5H5 H5I5 I5J5 J5K5 K5J5"/>
    </vehicle>
    <vehicle id="75" depart="76.00">
        <route edges="G4G5 G5F5 F5E5 E5D5 D5D4 D4E4"/>
    </vehicle>
    <vehicle id="76" depart="77.00">
        <route edges="H10I10 I10H10 H10H1 H1H2 H2H3"/>
    </vehicle>
    <vehicle id="77" depart="78.00">
        <route edges="F10E10 E10F10 F10F9 F9G9 G9G10"/>
    </vehicle>
    <vehicle id="78" depart="79.00">
        <route edges="C10D10 D10C10 C10C9"/>
    </vehicle>
    <vehicle id="79" depart="80.00">
        <route edges="D2D1 D1C1 C1B1 B1C1"/>
    </vehicle>
    <vehicle id="80" depart="81.00">
        <route edges="D4C4 C4C5 C5D5 D5E5 E5F5 F5G5 G5H5 H5I5 I5J5 J5K5"/>
    </vehicle>
    <vehicle id="81" depart="82.00">
        <route edges="I8H8 H8G8 G8F8 F8E8 E8E7 E7E6 E6E5 E5F5"/>
    </vehicle>
    <vehicle id="82" depart="83.00">
        <route edges="F1E1 E1E10 E10E9 E9E8 E8D8"/>
    </vehicle>
    <vehicle id="83" depart="84.00">
        <route edges="K2J2 J2I2 I2H2 H2G2 G2F2 F2E2 E2D2 D2C2 C2B2 B2B1 B1B10 B10B9 B9B8 B8C8 C8D8 D8E8 E8F8 F8G8 G8F8"/>
    </vehicle>
    <vehicle id="84" depart="85.00">
        <route edges="E9E8 E8D8 D8C8 C8C9 C9C10 C10C1 C1C2 C2D2 D2E2 E2F2 F2G2 G2H2 H2I2 I2I3"/>
    </vehicle>
    <vehicle id="85" depart="86.00">
        <route edges="B6B5 B5B4 B4C4 C4D4 D4E4"/>
    </vehicle>
    <vehicle id="86" depart="87.00">
        <route edges="F2E2 E2D2 D2D1 D1D10 D10D9 D9C9"/>
    </vehicle>
    <vehicle id="87" depart="88.00">
        <route edges="J2J1 J1I1 I1H1 H1H2 H2H1"/>
    </vehicle>
    <vehicle id="88" depart="89.00">
        <route edges="I2J2 J2I2 I2H2 H2G2 G2F2 F2E2 E2D2 D2C2 C2B2 B2B3 B3B4 B4B5 B5B6 B6B7 B7C7 C7D7 D7E7 E7F7 F7G7 G7G6"/>
    </vehicle>
    <vehicle id="89" depart="90.00">
        <route edges="C6C5 C5D5 D5E5 E5F5 F5G5 G5H5"/>
    </vehicle>
    <vehicle id="90" depart="91.00">
        <route edges="F2E2 E2D2 D2C2 C2B2 B2B3 B3B4 B4B5 B5B6 B6B7 B7C7 C7D7 D7E7 E7F7 F7G7 G7H7 H7G7"/>
    </vehicle>
    <vehicle id="91" depart="92.00">
        <route edges="G10H10 H10G10 G10F10"/>
    </vehicle>
    <vehicle id="92" depart="93.00">
        <route edges="C4C5 C5C6 C6C7"/>
    </vehicle>
    <vehicle id="93" depart="94.00">
        <route edges="F8E8 E8D8 D8C8 C8B8 B8B9 B9B10 B10B1 B1B2 B2B3 B3C3 C3D3 D3E3 E3F3 F3E3"/>
    </vehicle>
    <vehicle id="94" depart="95.00">
        <route edges="J2J1 J1I1 I1I2 I2I3 I3I4 I4H4"/>
    </vehicle>
    <vehicle id="95" depart="96.00">
        <route edges="G7H7 H7H6 H6I6 I6J6 J6K6"/>
    </vehicle>
    <vehicle id="96" depart="97.00">
        <route edges="E1E2 E2D2 D2C2 C2B2 B2B1 B1B10 B10B9 B9B8 B8B7"/>
    </vehicle>
    <vehicle id="97" depart="98.00">
        <route edges="H2I2 I2H2 H2G2 G2F2 F2F3 F3F4 F4F3"/>
    </vehicle>
    <vehicle id="98" depart="99.00">
        <route edges="C3C4 C4B4 B4B5 B5B6 B6B7 B7B8 B8B9 B9C9 C9D9 D9E9 E9F9 F9G9 G9H9 H9I9 I9J9 J9K9"/>
    </vehicle>
    <vehicle id="99" depart="100.00">
        <route edges="H4G4 G4F4 F4E4 E4D4 D4D5 D5D6 D6D7 D7C7"/>
    </vehicle>
</routes>
