    <configuration>
        <input>
            <net-file value="net.net.xml"/>
            <route-files value="rou1250.rou.xml"/>
        </input>
    </configuration>
