<?xml version="1.0" encoding="utf-8"?>
<!-- generated on 11/15/18 11:26:46 by SUMO netconvert Version 0.32.0
<?xml version="1.0" encoding="UTF-8"?>

<configuration xmlns:xsi="http://www.w3.org/2001/XMLSchema-instance" xsi:noNamespaceSchemaLocation="http://sumo.dlr.de/xsd/netconvertConfiguration.xsd">

    <input>
        <osm-files value="NicosiaSmall.osm"/>
    </input>

    <output>
        <output-file value="LeftNicosia.net.xml"/>
    </output>

    <projection>
        <proj.utm value="true"/>
    </projection>

    <processing>
        <lefthand value="true"/>
    </processing>

</configuration>
-->
<net version="0.27" lefthand="true" xmlns:xsi="http://www.w3.org/2001/XMLSchema-instance" xsi:noNamespaceSchemaLocation="http://sumo.dlr.de/xsd/net_file.xsd">
  <location netOffset="-532533.27,-3891347.72" convBoundary="0.00,-0.00,1539.22,1232.25" origBoundary="33.357276,35.164512,33.374170,35.175601" projParameter="+proj=utm +zone=36 +ellps=WGS84 +datum=WGS84 +units=m +no_defs" />
  <type id="highway.bridleway" priority="1" numLanes="1" speed="2.78" allow="pedestrian" oneway="1" width="2.00" />
  <type id="highway.bus_guideway" priority="1" numLanes="1" speed="8.33" allow="bus" oneway="1" />
  <type id="highway.cycleway" priority="1" numLanes="1" speed="5.56" allow="bicycle" oneway="0" width="1.00" />
  <type id="highway.footway" priority="1" numLanes="1" speed="2.78" allow="pedestrian" oneway="1" width="2.00" />
  <type id="highway.ford" priority="1" numLanes="1" speed="2.78" allow="army" oneway="0" />
  <type id="highway.living_street" priority="3" numLanes="1" speed="2.78" disallow="tram rail_urban rail rail_electric ship" oneway="0" />
  <type id="highway.motorway" priority="13" numLanes="2" speed="44.44" allow="private emergency authority army vip passenger hov taxi bus coach delivery truck trailer motorcycle evehicle custom1 custom2" oneway="1" />
  <type id="highway.motorway_link" priority="12" numLanes="1" speed="22.22" allow="private emergency authority army vip passenger hov taxi bus coach delivery truck trailer motorcycle evehicle custom1 custom2" oneway="1" />
  <type id="highway.path" priority="1" numLanes="1" speed="2.78" allow="bicycle pedestrian" oneway="1" width="2.00" />
  <type id="highway.pedestrian" priority="1" numLanes="1" speed="2.78" allow="pedestrian" oneway="1" width="2.00" />
  <type id="highway.primary" priority="9" numLanes="2" speed="27.78" disallow="tram rail_urban rail rail_electric ship" oneway="0" />
  <type id="highway.primary_link" priority="8" numLanes="1" speed="22.22" disallow="tram rail_urban rail rail_electric ship" oneway="0" />
  <type id="highway.raceway" priority="14" numLanes="2" speed="83.33" allow="vip" oneway="0" />
  <type id="highway.residential" priority="4" numLanes="1" speed="13.89" disallow="tram rail_urban rail rail_electric ship" oneway="0" />
  <type id="highway.secondary" priority="7" numLanes="2" speed="27.78" disallow="tram rail_urban rail rail_electric ship" oneway="0" />
  <type id="highway.secondary_link" priority="6" numLanes="1" speed="22.22" disallow="tram rail_urban rail rail_electric ship" oneway="0" />
  <type id="highway.service" priority="2" numLanes="1" speed="5.56" allow="delivery bicycle pedestrian" oneway="0" />
  <type id="highway.services" priority="1" numLanes="1" speed="8.33" disallow="tram rail_urban rail rail_electric ship" oneway="0" />
  <type id="highway.stairs" priority="1" numLanes="1" speed="1.39" allow="pedestrian" oneway="1" width="2.00" />
  <type id="highway.step" priority="1" numLanes="1" speed="1.39" allow="pedestrian" oneway="1" width="2.00" />
  <type id="highway.steps" priority="1" numLanes="1" speed="1.39" allow="pedestrian" oneway="1" width="2.00" />
  <type id="highway.tertiary" priority="6" numLanes="1" speed="22.22" disallow="tram rail_urban rail rail_electric ship" oneway="0" />
  <type id="highway.tertiary_link" priority="5" numLanes="1" speed="22.22" disallow="tram rail_urban rail rail_electric ship" oneway="0" />
  <type id="highway.track" priority="1" numLanes="1" speed="5.56" disallow="tram rail_urban rail rail_electric ship" oneway="0" />
  <type id="highway.trunk" priority="11" numLanes="2" speed="27.78" disallow="tram rail_urban rail rail_electric bicycle pedestrian ship" oneway="0" />
  <type id="highway.trunk_link" priority="10" numLanes="1" speed="22.22" disallow="tram rail_urban rail rail_electric bicycle pedestrian ship" oneway="0" />
  <type id="highway.unclassified" priority="5" numLanes="1" speed="13.89" disallow="tram rail_urban rail rail_electric ship" oneway="0" />
  <type id="highway.unsurfaced" priority="1" numLanes="1" speed="8.33" disallow="tram rail_urban rail rail_electric ship" oneway="0" />
  <type id="railway.light_rail" priority="15" numLanes="1" speed="27.78" allow="rail_urban" oneway="1" />
  <type id="railway.preserved" priority="15" numLanes="1" speed="27.78" allow="rail" oneway="1" />
  <type id="railway.rail" priority="15" numLanes="1" speed="83.33" allow="rail rail_electric" oneway="1" />
  <type id="railway.subway" priority="15" numLanes="1" speed="27.78" allow="rail_urban" oneway="1" />
  <type id="railway.tram" priority="15" numLanes="1" speed="13.89" allow="tram" oneway="1" />
  <edge id=":123589438_0" function="internal">
    <lane id=":123589438_0_0" index="0" disallow="tram rail_urban rail rail_electric ship" speed="22.22" length="6.07" shape="996.45,347.56 992.11,343.32" />
  </edge>
  <edge id=":123589438_1" function="internal">
    <lane id=":123589438_1_0" index="0" disallow="tram rail_urban rail rail_electric ship" speed="22.22" length="2.41" shape="996.45,347.56 994.98,347.30 994.12,347.62" />
  </edge>
  <edge id=":123589438_6" function="internal">
    <lane id=":123589438_6_0" index="0" speed="22.22" length="2.41" shape="994.12,347.62 993.85,348.50 994.17,349.95" />
  </edge>
  <edge id=":123589438_2" function="internal">
    <lane id=":123589438_2_0" index="0" disallow="tram rail_urban rail rail_electric ship" speed="18.06" length="5.05" shape="989.79,350.14 990.85,349.24 991.93,348.90 993.04,349.14 994.17,349.95" />
  </edge>
  <edge id=":123589438_3" function="internal">
    <lane id=":123589438_3_0" index="0" disallow="tram rail_urban rail rail_electric ship" speed="18.06" length="7.81" shape="989.79,350.14 991.54,347.89 992.51,346.01 992.70,344.48 992.11,343.32" />
  </edge>
  <edge id=":123589438_4" function="internal">
    <lane id=":123589438_4_0" index="0" disallow="tram rail_urban rail rail_electric ship" speed="22.22" length="6.16" shape="989.77,345.64 994.17,349.95" />
  </edge>
  <edge id=":123589438_5" function="internal">
    <lane id=":123589438_5_0" index="0" disallow="tram rail_urban rail rail_electric ship" speed="22.22" length="2.41" shape="989.77,345.64 991.23,345.94 992.10,345.65" />
  </edge>
  <edge id=":123589438_7" function="internal">
    <lane id=":123589438_7_0" index="0" speed="22.22" length="2.41" shape="992.10,345.65 992.40,344.77 992.11,343.32" />
  </edge>
  <edge id=":123598246_0" function="internal">
    <lane id=":123598246_0_0" index="0" disallow="tram rail_urban rail rail_electric ship" speed="18.06" length="9.35" shape="844.20,232.02 841.95,232.24 840.71,233.42 840.47,235.58 841.22,238.70" />
  </edge>
  <edge id=":123598246_1" function="internal">
    <lane id=":123598246_1_0" index="0" disallow="tram rail_urban rail rail_electric ship" speed="22.22" length="4.82" shape="844.20,232.02 842.89,232.72 842.40,233.50 842.73,234.36 843.89,235.30" />
  </edge>
  <edge id=":1366840027_0" function="internal">
    <lane id=":1366840027_0_0" index="0" allow="delivery bicycle pedestrian" speed="5.56" length="4.82" shape="813.54,564.17 813.18,562.73 812.55,562.06 811.63,562.17 810.44,563.06" />
  </edge>
  <edge id=":1366840036_0" function="internal">
    <lane id=":1366840036_0_0" index="0" disallow="tram rail_urban rail rail_electric ship" speed="16.67" length="5.41" shape="808.90,567.33 808.20,568.76 807.29,569.70 806.19,570.16 804.88,570.14" />
  </edge>
  <edge id=":1366840036_1" function="internal">
    <lane id=":1366840036_1_0" index="0" allow="delivery bicycle pedestrian" speed="5.56" length="4.82" shape="808.90,567.33 809.26,568.77 809.89,569.44 810.81,569.33 812.00,568.45" />
  </edge>
  <edge id=":1366840036_2" function="internal">
    <lane id=":1366840036_2_0" index="0" allow="delivery bicycle pedestrian" speed="16.67" length="5.08" shape="814.00,572.35 812.72,571.78 811.96,570.93 811.72,569.82 812.00,568.45" />
  </edge>
  <edge id=":1366840036_3" function="internal">
    <lane id=":1366840036_3_0" index="0" disallow="tram rail_urban rail rail_electric ship" speed="27.78" length="10.01" shape="813.09,575.52 810.49,574.24 809.02,572.67 807.53,571.18 804.88,570.14" />
  </edge>
  <edge id=":1366840036_4" function="internal">
    <lane id=":1366840036_4_0" index="0" allow="delivery bicycle pedestrian" speed="16.67" length="3.15" shape="804.26,573.38 806.84,573.47 807.37,573.28" />
  </edge>
  <edge id=":1366840036_5" function="internal">
    <lane id=":1366840036_5_0" index="0" disallow="tram rail_urban rail rail_electric ship" speed="27.78" length="2.12" shape="804.26,573.38 805.63,572.80 806.01,572.30" />
  </edge>
  <edge id=":1366840036_6" function="internal">
    <lane id=":1366840036_6_0" index="0" speed="16.67" length="7.00" shape="807.37,573.28 808.99,572.68 810.71,571.01 812.00,568.45" />
  </edge>
  <edge id=":1366840036_7" function="internal">
    <lane id=":1366840036_7_0" index="0" speed="27.78" length="2.70" shape="806.01,572.30 806.19,572.07 805.94,571.18 804.88,570.14" />
  </edge>
  <edge id=":1883187003_0" function="internal">
    <lane id=":1883187003_0_0" index="0" disallow="tram rail_urban rail rail_electric ship" speed="13.89" length="2.56" shape="1132.61,885.34 1130.24,886.30" />
  </edge>
  <edge id=":1883187003_1" function="internal">
    <lane id=":1883187003_1_0" index="0" disallow="tram rail_urban rail rail_electric ship" speed="13.89" length="1.71" shape="1132.61,885.34 1132.91,887.02" />
  </edge>
  <edge id=":1883187003_2" function="internal">
    <lane id=":1883187003_2_0" index="0" disallow="tram rail_urban rail rail_electric ship" speed="13.89" length="1.68" shape="1132.61,885.34 1133.48,886.78" />
  </edge>
  <edge id=":1883187003_9" function="internal">
    <lane id=":1883187003_9_0" index="0" speed="13.89" length="4.83" shape="1132.91,887.02 1133.76,891.77" />
  </edge>
  <edge id=":1883187003_10" function="internal">
    <lane id=":1883187003_10_0" index="0" speed="13.89" length="1.62" shape="1133.48,886.78 1134.31,888.16" />
  </edge>
  <edge id=":1883187003_3" function="internal">
    <lane id=":1883187003_3_0" index="0" disallow="tram rail_urban rail rail_electric ship" speed="13.89" length="8.81" shape="1136.81,890.50 1135.47,888.02 1133.93,886.50 1132.19,885.93 1130.24,886.30" />
  </edge>
  <edge id=":1883187003_4" function="internal">
    <lane id=":1883187003_4_0" index="0" disallow="tram rail_urban rail rail_electric ship" speed="13.89" length="3.42" shape="1136.81,890.50 1134.31,888.16" />
  </edge>
  <edge id=":1883187003_5" function="internal">
    <lane id=":1883187003_5_0" index="0" disallow="tram rail_urban rail rail_electric ship" speed="13.89" length="4.82" shape="1136.81,890.50 1135.57,889.68 1134.65,889.61 1134.05,890.31 1133.76,891.77" />
  </edge>
  <edge id=":1883187003_6" function="internal">
    <lane id=":1883187003_6_0" index="0" disallow="tram rail_urban rail rail_electric ship" speed="13.89" length="3.58" shape="1131.50,889.35 1132.04,889.34 1132.60,889.73 1133.17,890.55 1133.76,891.77" />
  </edge>
  <edge id=":1883187003_7" function="internal">
    <lane id=":1883187003_7_0" index="0" disallow="tram rail_urban rail rail_electric ship" speed="13.89" length="3.05" shape="1131.50,889.35 1134.31,888.16" />
  </edge>
  <edge id=":1883187003_8" function="internal">
    <lane id=":1883187003_8_0" index="0" disallow="tram rail_urban rail rail_electric ship" speed="13.89" length="2.41" shape="1131.50,889.35 1132.33,888.11 1132.39,887.19" />
  </edge>
  <edge id=":1883187003_11" function="internal">
    <lane id=":1883187003_11_0" index="0" speed="13.89" length="2.41" shape="1132.39,887.19 1131.70,886.59 1130.24,886.30" />
  </edge>
  <edge id=":1883187012_0" function="internal">
    <lane id=":1883187012_0_0" index="0" disallow="tram rail_urban rail rail_electric ship" speed="13.89" length="6.13" shape="360.96,798.96 366.67,796.71" />
  </edge>
  <edge id=":1883187029_0" function="internal">
    <lane id=":1883187029_0_0" index="0" disallow="tram rail_urban rail rail_electric ship" speed="27.78" length="9.09" shape="1157.06,810.39 1156.22,807.83 1155.67,806.06 1155.21,804.27 1154.62,801.64" />
  </edge>
  <edge id=":1883187029_1" function="internal">
    <lane id=":1883187029_1_0" index="0" disallow="tram rail_urban rail rail_electric ship" speed="20.84" length="5.31" shape="1157.06,810.39 1155.70,807.65 1153.96,806.23" />
  </edge>
  <edge id=":1883187029_2" function="internal">
    <lane id=":1883187029_2_0" index="0" disallow="tram rail_urban rail rail_electric ship" speed="27.78" length="2.41" shape="1157.06,810.39 1155.89,809.47 1154.98,809.34" />
  </edge>
  <edge id=":1883187029_9" function="internal">
    <lane id=":1883187029_9_0" index="0" speed="20.84" length="5.67" shape="1153.96,806.23 1153.81,806.12 1151.41,805.81 1148.48,806.71" />
  </edge>
  <edge id=":1883187029_10" function="internal">
    <lane id=":1883187029_10_0" index="0" speed="27.78" length="2.41" shape="1154.98,809.34 1154.33,809.99 1153.93,811.42" />
  </edge>
  <edge id=":1883187029_3" function="internal">
    <lane id=":1883187029_3_0" index="0" disallow="tram rail_urban rail rail_electric ship" speed="20.84" length="5.16" shape="1149.90,809.69 1151.27,809.27 1152.40,809.42 1153.29,810.13 1153.93,811.42" />
  </edge>
  <edge id=":1883187029_4" function="internal">
    <lane id=":1883187029_4_0" index="0" disallow="tram rail_urban rail rail_electric ship" speed="20.84" length="10.17" shape="1149.90,809.69 1152.39,808.15 1154.01,806.29 1154.75,804.12 1154.62,801.64" />
  </edge>
  <edge id=":1883187029_5" function="internal">
    <lane id=":1883187029_5_0" index="0" disallow="tram rail_urban rail rail_electric ship" speed="13.89" length="4.82" shape="1149.90,809.69 1150.66,808.42 1150.68,807.50 1149.95,806.93 1148.48,806.71" />
  </edge>
  <edge id=":1883187029_6" function="internal">
    <lane id=":1883187029_6_0" index="0" disallow="tram rail_urban rail rail_electric ship" speed="20.84" length="5.70" shape="1151.39,802.34 1151.43,803.63 1150.96,804.79 1149.98,805.82 1148.48,806.71" />
  </edge>
  <edge id=":1883187029_7" function="internal">
    <lane id=":1883187029_7_0" index="0" disallow="tram rail_urban rail rail_electric ship" speed="27.78" length="9.43" shape="1151.39,802.34 1152.00,805.08 1152.48,806.93 1153.05,808.76 1153.93,811.42" />
  </edge>
  <edge id=":1883187029_8" function="internal">
    <lane id=":1883187029_8_0" index="0" disallow="tram rail_urban rail rail_electric ship" speed="27.78" length="2.41" shape="1151.39,802.34 1152.46,803.38 1153.36,803.60" />
  </edge>
  <edge id=":1883187029_11" function="internal">
    <lane id=":1883187029_11_0" index="0" speed="27.78" length="2.41" shape="1153.36,803.60 1154.07,803.02 1154.62,801.64" />
  </edge>
  <edge id=":1883217423_0" function="internal">
    <lane id=":1883217423_0_0" index="0" disallow="tram rail_urban rail rail_electric ship" speed="27.78" length="9.56" shape="538.38,448.20 528.94,446.35" />
    <lane id=":1883217423_0_1" index="1" disallow="tram rail_urban rail rail_electric ship" speed="27.78" length="9.56" shape="537.66,451.42 528.34,449.59" />
  </edge>
  <edge id=":1883217423_2" function="internal">
    <lane id=":1883217423_2_0" index="0" disallow="tram rail_urban rail rail_electric ship" speed="27.78" length="2.51" shape="537.66,451.42 536.28,451.96 535.69,452.68 535.72,452.77" />
  </edge>
  <edge id=":1883217423_8" function="internal">
    <lane id=":1883217423_8_0" index="0" speed="27.78" length="2.31" shape="535.72,452.77 535.92,453.57 536.95,454.64" />
  </edge>
  <edge id=":1883217423_3" function="internal">
    <lane id=":1883217423_3_0" index="0" disallow="tram rail_urban rail rail_electric ship" speed="27.78" length="9.31" shape="527.15,456.09 536.23,457.87" />
    <lane id=":1883217423_3_1" index="1" disallow="tram rail_urban rail rail_electric ship" speed="27.78" length="9.31" shape="527.75,452.84 536.95,454.64" />
  </edge>
  <edge id=":1883217423_5" function="internal">
    <lane id=":1883217423_5_0" index="0" disallow="tram rail_urban rail rail_electric ship" speed="27.78" length="2.41" shape="527.75,452.84 529.11,452.25 529.67,451.51" />
  </edge>
  <edge id=":1883217423_9" function="internal">
    <lane id=":1883217423_9_0" index="0" speed="27.78" length="2.41" shape="529.67,451.51 529.41,450.63 528.34,449.59" />
  </edge>
  <edge id=":1883217423_6" function="internal">
    <lane id=":1883217423_6_0" index="0" disallow="tram rail_urban rail rail_electric ship" speed="20.84" length="5.29" shape="532.23,443.48 532.09,444.97 531.49,445.95 530.44,446.41 528.94,446.35" />
  </edge>
  <edge id=":1883217423_7" function="internal">
    <lane id=":1883217423_7_0" index="0" disallow="tram rail_urban rail rail_electric ship" speed="20.84" length="11.46" shape="535.53,443.33 535.63,445.49 535.89,449.28 536.32,452.93 536.95,454.64" />
  </edge>
  <edge id=":1910018346_0" function="internal">
    <lane id=":1910018346_0_0" index="0" disallow="tram rail_urban rail rail_electric ship" speed="13.89" length="5.25" shape="444.75,655.14 443.16,650.14" />
  </edge>
  <edge id=":1910018346_1" function="internal">
    <lane id=":1910018346_1_0" index="0" disallow="tram rail_urban rail rail_electric ship" speed="13.89" length="2.41" shape="444.75,655.14 443.59,654.21 442.68,654.06" />
  </edge>
  <edge id=":1910018346_4" function="internal">
    <lane id=":1910018346_4_0" index="0" speed="13.89" length="2.41" shape="442.68,654.06 442.02,654.70 441.60,656.13" />
  </edge>
  <edge id=":1910018346_2" function="internal">
    <lane id=":1910018346_2_0" index="0" disallow="tram rail_urban rail rail_electric ship" speed="13.89" length="5.21" shape="440.02,651.16 441.60,656.13" />
  </edge>
  <edge id=":1910018346_3" function="internal">
    <lane id=":1910018346_3_0" index="0" disallow="tram rail_urban rail rail_electric ship" speed="13.89" length="2.41" shape="440.02,651.16 441.19,652.08 442.10,652.22" />
  </edge>
  <edge id=":1910018346_5" function="internal">
    <lane id=":1910018346_5_0" index="0" speed="13.89" length="2.41" shape="442.10,652.22 442.76,651.57 443.16,650.14" />
  </edge>
  <edge id=":1910018354_0" function="internal">
    <lane id=":1910018354_0_0" index="0" disallow="tram rail_urban rail rail_electric ship" speed="13.89" length="4.98" shape="469.81,737.12 468.34,732.40" />
    <lane id=":1910018354_0_1" index="1" disallow="tram rail_urban rail rail_electric ship" speed="13.89" length="4.98" shape="466.67,738.12 465.18,733.34" />
  </edge>
  <edge id=":1998951328_0" function="internal">
    <lane id=":1998951328_0_0" index="0" disallow="tram rail_urban rail rail_electric ship" speed="27.78" length="2.99" shape="853.39,587.10 851.90,584.43" />
    <lane id=":1998951328_0_1" index="1" disallow="tram rail_urban rail rail_electric ship" speed="27.78" length="2.99" shape="853.39,587.10 850.49,587.41" />
  </edge>
  <edge id=":2129504269_0" function="internal">
    <lane id=":2129504269_0_0" index="0" disallow="tram rail_urban rail rail_electric ship" speed="20.84" length="5.23" shape="683.85,449.14 682.50,449.40 681.37,449.13 680.48,448.32 679.80,446.99" />
  </edge>
  <edge id=":2129504269_1" function="internal">
    <lane id=":2129504269_1_0" index="0" disallow="tram rail_urban rail rail_electric ship" speed="27.78" length="9.80" shape="683.85,449.14 681.15,450.09 679.29,450.70 677.40,451.23 674.62,451.95" />
    <lane id=":2129504269_1_1" index="1" disallow="tram rail_urban rail rail_electric ship" speed="27.78" length="9.80" shape="684.96,452.24 682.18,453.23 680.26,453.86 678.31,454.40 675.45,455.15" />
  </edge>
  <edge id=":2129504269_3" function="internal">
    <lane id=":2129504269_3_0" index="0" disallow="tram rail_urban rail rail_electric ship" speed="27.78" length="2.41" shape="684.96,452.24 684.08,453.44 683.97,454.35" />
  </edge>
  <edge id=":2129504269_8" function="internal">
    <lane id=":2129504269_8_0" index="0" speed="27.78" length="2.41" shape="683.97,454.35 684.63,454.99 686.08,455.35" />
  </edge>
  <edge id=":2129504269_4" function="internal">
    <lane id=":2129504269_4_0" index="0" disallow="tram rail_urban rail rail_electric ship" speed="27.78" length="10.40" shape="677.10,461.54 680.14,460.75 682.20,460.17 684.24,459.50 687.19,458.46" />
    <lane id=":2129504269_4_1" index="1" disallow="tram rail_urban rail rail_electric ship" speed="27.78" length="10.40" shape="676.28,458.34 679.22,457.58 681.23,457.01 683.21,456.37 686.08,455.35" />
  </edge>
  <edge id=":2129504269_6" function="internal">
    <lane id=":2129504269_6_0" index="0" disallow="tram rail_urban rail rail_electric ship" speed="20.84" length="2.97" shape="676.28,458.34 677.68,457.34 678.00,456.14" />
  </edge>
  <edge id=":2129504269_7" function="internal">
    <lane id=":2129504269_7_0" index="0" disallow="tram rail_urban rail rail_electric ship" speed="27.78" length="2.41" shape="676.28,458.34 677.27,457.23 677.46,456.33" />
  </edge>
  <edge id=":2129504269_9" function="internal">
    <lane id=":2129504269_9_0" index="0" speed="20.84" length="8.27" shape="678.00,456.14 678.22,455.30 677.89,452.22 676.69,448.08" />
  </edge>
  <edge id=":2129504269_10" function="internal">
    <lane id=":2129504269_10_0" index="0" speed="27.78" length="2.41" shape="677.46,456.33 676.86,455.64 675.45,455.15" />
  </edge>
  <edge id=":2129564489_0" function="internal">
    <lane id=":2129564489_0_0" index="0" disallow="tram rail_urban rail rail_electric ship" speed="13.89" length="6.30" shape="951.98,772.85 950.78,774.41 949.69,774.87 948.71,774.22 947.82,772.46" />
  </edge>
  <edge id=":2129564489_1" function="internal">
    <lane id=":2129564489_1_0" index="0" disallow="tram rail_urban rail rail_electric ship" speed="13.89" length="11.05" shape="951.98,772.85 950.19,775.73 948.94,777.70 947.90,779.76 946.74,782.93" />
    <lane id=":2129564489_1_1" index="1" disallow="tram rail_urban rail rail_electric ship" speed="13.89" length="11.05" shape="954.82,774.52 953.14,777.22 951.96,779.06 950.97,780.99 949.88,783.95" />
  </edge>
  <edge id=":2129564489_3" function="internal">
    <lane id=":2129564489_3_0" index="0" disallow="tram rail_urban rail rail_electric ship" speed="13.89" length="9.93" shape="944.72,773.57 945.93,776.29 946.89,778.23 947.28,780.18 946.74,782.93" />
  </edge>
  <edge id=":2129564489_4" function="internal">
    <lane id=":2129564489_4_0" index="0" disallow="tram rail_urban rail rail_electric ship" speed="13.89" length="4.82" shape="944.72,773.57 945.91,774.46 946.83,774.57 947.47,773.90 947.82,772.46" />
  </edge>
  <edge id=":2129564494_0" function="internal">
    <lane id=":2129564494_0_0" index="0" disallow="tram rail_urban rail rail_electric ship" speed="13.89" length="5.59" shape="1014.79,836.08 1013.28,836.71 1012.13,836.60 1011.34,835.76 1010.90,834.18" />
  </edge>
  <edge id=":2129564494_1" function="internal">
    <lane id=":2129564494_1_0" index="0" disallow="tram rail_urban rail rail_electric ship" speed="13.89" length="10.09" shape="1012.34,844.16 1010.90,834.18" />
  </edge>
  <edge id=":2129564496_0" function="internal">
    <lane id=":2129564496_0_0" index="0" disallow="tram rail_urban rail rail_electric ship" speed="13.89" length="9.51" shape="1081.95,755.23 1074.55,749.26" />
  </edge>
  <edge id=":2129564496_1" function="internal">
    <lane id=":2129564496_1_0" index="0" disallow="tram rail_urban rail rail_electric ship" speed="13.89" length="3.23" shape="1081.95,755.23 1080.46,754.56 1078.90,754.90" />
  </edge>
  <edge id=":2129564496_2" function="internal">
    <lane id=":2129564496_2_0" index="0" disallow="tram rail_urban rail rail_electric ship" speed="13.89" length="2.41" shape="1081.95,755.23 1080.47,755.10 1079.63,755.49" />
  </edge>
  <edge id=":2129564496_6" function="internal">
    <lane id=":2129564496_6_0" index="0" speed="13.89" length="4.99" shape="1078.90,754.90 1077.27,756.23 1075.58,758.57" />
  </edge>
  <edge id=":2129564496_7" function="internal">
    <lane id=":2129564496_7_0" index="0" speed="13.89" length="2.41" shape="1079.63,755.49 1079.44,756.39 1079.89,757.81" />
  </edge>
  <edge id=":2129564496_3" function="internal">
    <lane id=":2129564496_3_0" index="0" disallow="tram rail_urban rail rail_electric ship" speed="13.89" length="5.57" shape="1072.46,751.82 1073.32,752.82 1073.66,753.99 1073.47,755.34 1072.76,756.85" />
  </edge>
  <edge id=":2129564496_4" function="internal">
    <lane id=":2129564496_4_0" index="0" disallow="tram rail_urban rail rail_electric ship" speed="13.89" length="9.54" shape="1072.46,751.82 1079.89,757.81" />
  </edge>
  <edge id=":2129564496_5" function="internal">
    <lane id=":2129564496_5_0" index="0" disallow="tram rail_urban rail rail_electric ship" speed="13.89" length="2.41" shape="1072.46,751.82 1073.94,751.96 1074.79,751.59" />
  </edge>
  <edge id=":2129564496_8" function="internal">
    <lane id=":2129564496_8_0" index="0" speed="13.89" length="2.41" shape="1074.79,751.59 1074.99,750.68 1074.55,749.26" />
  </edge>
  <edge id=":2129564499_0" function="internal">
    <lane id=":2129564499_0_0" index="0" disallow="tram rail_urban rail rail_electric ship" speed="27.78" length="9.60" shape="1042.67,704.54 1034.69,699.20" />
  </edge>
  <edge id=":2129564499_1" function="internal">
    <lane id=":2129564499_1_0" index="0" disallow="tram rail_urban rail rail_electric ship" speed="27.78" length="2.41" shape="1042.67,704.54 1041.18,704.53 1040.37,704.97" />
  </edge>
  <edge id=":2129564499_6" function="internal">
    <lane id=":2129564499_6_0" index="0" speed="27.78" length="2.41" shape="1040.37,704.97 1040.25,705.89 1040.80,707.27" />
  </edge>
  <edge id=":2129564499_2" function="internal">
    <lane id=":2129564499_2_0" index="0" disallow="tram rail_urban rail rail_electric ship" speed="20.84" length="5.15" shape="1036.36,708.20 1037.36,707.14 1038.43,706.63 1039.58,706.68 1040.80,707.27" />
  </edge>
  <edge id=":2129564499_3" function="internal">
    <lane id=":2129564499_3_0" index="0" disallow="tram rail_urban rail rail_electric ship" speed="20.84" length="7.97" shape="1033.68,706.27 1035.16,703.86 1035.82,701.88 1035.67,700.32 1034.69,699.20" />
  </edge>
  <edge id=":2129564499_4" function="internal">
    <lane id=":2129564499_4_0" index="0" disallow="tram rail_urban rail rail_electric ship" speed="27.78" length="9.54" shape="1032.88,701.96 1040.80,707.27" />
  </edge>
  <edge id=":2129564499_5" function="internal">
    <lane id=":2129564499_5_0" index="0" disallow="tram rail_urban rail rail_electric ship" speed="27.78" length="2.41" shape="1032.88,701.96 1034.37,701.95 1035.17,701.49" />
  </edge>
  <edge id=":2129564499_7" function="internal">
    <lane id=":2129564499_7_0" index="0" speed="27.78" length="2.41" shape="1035.17,701.49 1035.27,700.57 1034.69,699.20" />
  </edge>
  <edge id=":2130805675_0" function="internal">
    <lane id=":2130805675_0_0" index="0" disallow="tram rail_urban rail rail_electric ship" speed="13.89" length="5.06" shape="542.45,743.75 542.18,742.38 542.42,741.27 543.17,740.43 544.44,739.84" />
  </edge>
  <edge id=":2130805675_1" function="internal">
    <lane id=":2130805675_1_0" index="0" disallow="tram rail_urban rail rail_electric ship" speed="13.89" length="6.36" shape="542.45,743.75 540.49,737.79" />
    <lane id=":2130805675_1_1" index="1" disallow="tram rail_urban rail rail_electric ship" speed="13.89" length="6.36" shape="539.34,744.86 537.33,738.74" />
  </edge>
  <edge id=":227033251_0" function="internal">
    <lane id=":227033251_0_0" index="0" disallow="tram rail_urban rail rail_electric ship" speed="8.33" length="9.64" shape="853.54,844.05 844.69,847.88" />
  </edge>
  <edge id=":227033251_1" function="internal">
    <lane id=":227033251_1_0" index="0" disallow="tram rail_urban rail rail_electric ship" speed="8.33" length="4.82" shape="853.54,844.05 852.71,845.29 852.65,846.21 853.35,846.82 854.81,847.10" />
  </edge>
  <edge id=":227033251_2" function="internal">
    <lane id=":227033251_2_0" index="0" disallow="tram rail_urban rail rail_electric ship" speed="11.11" length="5.08" shape="853.28,851.21 852.84,849.88 852.95,848.75 853.60,847.82 854.81,847.10" />
  </edge>
  <edge id=":227033251_3" function="internal">
    <lane id=":227033251_3_0" index="0" disallow="tram rail_urban rail rail_electric ship" speed="11.11" length="8.06" shape="850.33,852.68 848.85,850.14 847.42,848.49 846.04,847.73 844.69,847.88" />
  </edge>
  <edge id=":227033251_4" function="internal">
    <lane id=":227033251_4_0" index="0" disallow="tram rail_urban rail rail_electric ship" speed="8.33" length="9.55" shape="846.04,850.89 854.81,847.10" />
  </edge>
  <edge id=":227033251_5" function="internal">
    <lane id=":227033251_5_0" index="0" disallow="tram rail_urban rail rail_electric ship" speed="8.33" length="4.82" shape="846.04,850.89 846.83,849.63 846.87,848.71 846.16,848.12 844.69,847.88" />
  </edge>
  <edge id=":227034931_0" function="internal">
    <lane id=":227034931_0_0" index="0" disallow="tram rail_urban rail rail_electric ship" speed="13.89" length="10.87" shape="763.01,896.73 761.33,894.05 759.92,892.09 758.96,890.03 758.66,887.02" />
  </edge>
  <edge id=":227034931_1" function="internal">
    <lane id=":227034931_1_0" index="0" disallow="tram rail_urban rail rail_electric ship" speed="13.89" length="2.69" shape="763.01,896.73 761.70,896.02 760.78,896.03 760.61,896.26" />
  </edge>
  <edge id=":227034931_4" function="internal">